Off Peak 2019 v23/nyiso_off_peak_v23_shunts_as_z_load.m
function mpc = nyiso_off_peak_v23_shunts_as_z_load
%NYISO_OFF_PEAK_V23_SHUNTS_AS_Z_LOAD

%% MATPOWER Case Format : Version 2
mpc.version = '2';

%%-----  Power Flow Data  -----%%
%% system MVA base
mpc.baseMVA = 100;

%% bus data
%	bus_i	type	Pd	Qd	Gs	Bs	area	Vm	Va	baseKV	zone	Vmax	Vmin	lam_P	lam_Q	mu_Vmax	mu_Vmin
mpc.bus = [
	1	1	72.14	0	0	0	66	1.01548236	101.487337	115	66	1.1	0.9	5000.0000	0.0000	0.0000	0.0000;
	2	1	1	0	0	0	70	1.01186804	80.8113495	69	70	1.1	0.9	5000.0000	0.0000	0.0000	0.0000;
	3	1	2.22	0	0	0	70	1.00959983	79.4923355	115	70	1.1	0.9	5000.0000	0.0000	0.0000	0.0000;
	4	1	75.45	0	0	0	68	0.994290291	83.5714671	115	68	1.1	0.9	5000.0000	0.0000	0.0000	0.0000;
	5	1	2.22	0	0	0	70	1.00920694	80.3236767	115	70	1.1	0.9	5000.0000	0.0000	0.0000	0.0000;
	6	2	2.22	0	0	0	70	1.02	85.0696996	115	70	1.1	0.9	5000.0000	0.0000	0.0000	0.0000;
	7	1	4.43	0	0	0	70	1.01733728	83.6874471	115	70	1.1	0.9	5000.0000	0.0000	0.0000	0.0000;
	8	1	4.43	0	0	0	70	1.01951208	82.6966157	115	70	1.1	0.9	5000.0000	0.0000	0.0000	0.0000;
	9	1	19.56	0	0	0	71	1.01675167	71.4492119	115	71	1.1	0.9	5000.0000	0.0000	0.0000	0.0000;
	10	1	15.09	0	0	0	68	0.985879753	80.5157406	115	68	1.1	0.9	5000.0000	0.0000	0.0000	0.0000;
	11	1	4.43	0	0	0	70	1.00973476	79.5036495	115	70	1.1	0.9	5000.0000	0.0000	0.0000	0.0000;
	12	1	2.22	0	0	0	70	1.01898792	82.771934	115	70	1.1	0.9	5000.0000	0.0000	0.0000	0.0000;
	13	1	8.87	0	0	0	70	1.01685524	82.208721	115	70	1.1	0.9	5000.0000	0.0000	0.0000	0.0000;
	14	1	2.73	0	0	0	69	1.01433207	80.8407682	115	69	1.1	0.9	5000.0000	0.0000	0.0000	0.0000;
	15	2	2.73	0	0	0	69	1.02	98.7636451	115	69	1.1	0.9	5000.0000	0.0000	0.0000	0.0000;
	16	1	6.83	0	0	0	69	1.01757296	89.8468872	115	69	1.1	0.9	5000.0000	0.0000	0.0000	0.0000;
	17	2	18.94	0	0	0	75	1.01462238	48.20527	138	75	1.1	0.9	5000.0000	0.0000	0.0000	0.0000;
	18	2	17.75	0	0	0	75	1.02271504	57.4835837	69	75	1.1	0.9	5000.0000	0.0000	0.0000	0.0000;
	19	2	32.9	0	0	0	75	1.02	57.9509557	115	75	1.1	0.9	5000.0000	0.0000	0.0000	0.0000;
	20	1	5.47	0	0	0	69	1.01960108	100.16776	115	69	1.1	0.9	5000.0000	0.0000	0.0000	0.0000;
	21	2	5.47	0	0	0	69	1.02	100.2697	115	69	1.1	0.9	5000.0000	0.0000	0.0000	0.0000;
	22	1	1	0	0	0	70	1.01129486	80.6778916	69	70	1.1	0.9	5000.0000	0.0000	0.0000	0.0000;
	23	1	6.83	0	0	0	69	1.01907315	82.5585223	115	69	1.1	0.9	5000.0000	0.0000	0.0000	0.0000;
	24	2	14.82	0	0	0	67	1.02	101.297039	115	67	1.1	0.9	5000.0000	0.0000	0.0000	0.0000;
	25	1	1.37	0	0	0	69	1.02103786	96.5231514	115	69	1.1	0.9	5000.0000	0.0000	0.0000	0.0000;
	26	2	0	0	0	0	74	1.02	59.5216907	345	74	1.1	0.9	5000.0000	0.0000	0.0000	0.0000;
	27	2	5.93	0	0	0	67	1.00556097	96.2554704	115	67	1.1	0.9	5000.0000	0.0000	0.0000	0.0000;
	28	2	1.37	0	0	0	69	1.02000215	97.1229341	115	69	1.1	0.9	5000.0000	0.0000	0.0000	0.0000;
	29	2	11.85	0	0	0	67	1.01450788	92.4638992	115	67	1.1	0.9	5000.0000	0.0000	0.0000	0.0000;
	30	2	5.93	0	0	0	67	1.02	92.2340797	115	67	1.1	0.9	5000.0000	0.0000	0.0000	0.0000;
	31	2	2.22	0	0	0	70	1.02	83.2447776	115	70	1.1	0.9	5000.0000	0.0000	0.0000	0.0000;
	32	2	2.22	0	0	0	70	1.02000502	83.1871695	115	70	1.1	0.9	5000.0000	0.0000	0.0000	0.0000;
	33	2	3.48	0	0	0	65	1.02017973	97.7498381	115	65	1.1	0.9	5000.0000	0.0000	0.0000	0.0000;
	34	2	5.93	0	0	0	67	1.0180185	105.85788	115	67	1.1	0.9	5000.0000	0.0000	0.0000	0.0000;
	35	1	35.91	0	0	0	68	1.00150548	82.9619243	115	68	1.1	0.9	5000.0000	0.0000	0.0000	0.0000;
	36	1	35.91	0	0	0	68	1.00140836	82.9868908	115	68	1.1	0.9	5000.0000	0.0000	0.0000	0.0000;
	37	2	5.21	0	0	0	65	1.02	105.320606	115	65	1.1	0.9	5000.0000	0.0000	0.0000	0.0000;
	38	2	3.48	0	0	0	65	1.02	96.2859446	115	65	1.1	0.9	5000.0000	0.0000	0.0000	0.0000;
	39	2	0	0	0	0	65	1.02	99.6134297	230	65	1.1	0.9	5000.0000	0.0000	0.0000	0.0000;
	40	1	1.37	0	0	0	69	1.01853623	95.062092	115	69	1.1	0.9	5000.0000	0.0000	0.0000	0.0000;
	41	2	3.48	0	0	0	65	1.0142243	102.249826	115	65	1.1	0.9	5000.0000	0.0000	0.0000	0.0000;
	42	1	12.17	0	0	0	65	1.0242385	95.6108623	115	65	1.1	0.9	5000.0000	0.0000	0.0000	0.0000;
	43	1	3.48	0	0	0	65	1.02350007	95.3362196	115	65	1.1	0.9	5000.0000	0.0000	0.0000	0.0000;
	44	1	1.74	0	0	0	65	1.02350612	95.3415485	115	65	1.1	0.9	5000.0000	0.0000	0.0000	0.0000;
	45	1	5.21	0	0	0	65	1.02351174	95.3429022	115	65	1.1	0.9	5000.0000	0.0000	0.0000	0.0000;
	46	1	3.48	0	0	0	65	1.02420508	95.6023785	115	65	1.1	0.9	5000.0000	0.0000	0.0000	0.0000;
	47	1	1.74	0	0	0	65	1.02558386	96.6058522	115	65	1.1	0.9	5000.0000	0.0000	0.0000	0.0000;
	48	1	6.95	0	0	0	65	1.02312483	96.9082306	115	65	1.1	0.9	5000.0000	0.0000	0.0000	0.0000;
	49	1	2.73	0	0	0	69	1.01886552	84.2762296	115	69	1.1	0.9	5000.0000	0.0000	0.0000	0.0000;
	50	1	2.73	0	0	0	69	1.01518141	98.6073291	115	69	1.1	0.9	5000.0000	0.0000	0.0000	0.0000;
	51	1	2.96	0	0	0	67	1.01938989	92.7572353	115	67	1.1	0.9	5000.0000	0.0000	0.0000	0.0000;
	52	2	2.96	0	0	0	67	1.02	92.8874882	115	67	1.1	0.9	5000.0000	0.0000	0.0000	0.0000;
	53	2	5.93	0	0	0	67	1.02	94.1298573	115	67	1.1	0.9	5000.0000	0.0000	0.0000	0.0000;
	54	1	0	0	0	0	67	1.02685255	93.9671402	230	67	1.1	0.9	5000.0000	0.0000	0.0000	0.0000;
	55	1	8.89	0	0	0	67	1.01920963	90.5593092	115	67	1.1	0.9	5000.0000	0.0000	0.0000	0.0000;
	56	1	5.93	0	0	0	67	1.0190592	90.1580257	115	67	1.1	0.9	5000.0000	0.0000	0.0000	0.0000;
	57	1	5.93	0	0	0	67	1.01924974	89.7875095	115	67	1.1	0.9	5000.0000	0.0000	0.0000	0.0000;
	58	1	4.44	0	0	0	67	1.01882451	105.722952	115	67	1.1	0.9	5000.0000	0.0000	0.0000	0.0000;
	59	1	9.57	0	0	0	69	1.02167909	96.4701413	115	69	1.1	0.9	5000.0000	0.0000	0.0000	0.0000;
	60	2	1.23	0	0	0	69	1.02	80.2832523	69	69	1.1	0.9	5000.0000	0.0000	0.0000	0.0000;
	61	1	8.89	0	0	0	67	1.01614279	92.6352228	115	67	1.1	0.9	5000.0000	0.0000	0.0000	0.0000;
	62	1	0	0	0	0	70	1.02001005	83.7474165	345	70	1.1	0.9	5000.0000	0.0000	0.0000	0.0000;
	63	2	0	0	0	0	70	1.02	83.7548945	345	70	1.1	0.9	5000.0000	0.0000	0.0000	0.0000;
	64	1	1.37	0	0	0	69	1.01298024	96.7765064	115	69	1.1	0.9	5000.0000	0.0000	0.0000	0.0000;
	65	1	3.48	0	0	0	65	1.02179518	97.1211663	115	65	1.1	0.9	5000.0000	0.0000	0.0000	0.0000;
	66	1	3.48	0	0	0	65	1.01924687	95.1174957	115	65	1.1	0.9	5000.0000	0.0000	0.0000	0.0000;
	67	1	1.74	0	0	0	65	1.01935929	95.1720859	115	65	1.1	0.9	5000.0000	0.0000	0.0000	0.0000;
	68	1	3.48	0	0	0	65	1.01889597	97.2087167	115	65	1.1	0.9	5000.0000	0.0000	0.0000	0.0000;
	69	2	8.69	0	0	0	65	1.02	95.1697769	115	65	1.1	0.9	5000.0000	0.0000	0.0000	0.0000;
	70	1	3.48	0	0	0	65	1.01996931	95.1361612	115	65	1.1	0.9	5000.0000	0.0000	0.0000	0.0000;
	71	1	5.21	0	0	0	65	1.02344692	97.1435879	115	65	1.1	0.9	5000.0000	0.0000	0.0000	0.0000;
	72	1	1.74	0	0	0	65	1.02070985	97.112584	115	65	1.1	0.9	5000.0000	0.0000	0.0000	0.0000;
	73	1	3.48	0	0	0	65	1.02063619	97.0973318	115	65	1.1	0.9	5000.0000	0.0000	0.0000	0.0000;
	74	1	6.95	0	0	0	65	1.02035023	97.0407066	115	65	1.1	0.9	5000.0000	0.0000	0.0000	0.0000;
	75	1	1.74	0	0	0	65	1.02005852	96.9825741	115	65	1.1	0.9	5000.0000	0.0000	0.0000	0.0000;
	76	1	3.48	0	0	0	65	1.02005274	96.981187	115	65	1.1	0.9	5000.0000	0.0000	0.0000	0.0000;
	77	1	8.69	0	0	0	65	1.02055102	96.1302048	115	65	1.1	0.9	5000.0000	0.0000	0.0000	0.0000;
	78	1	3.48	0	0	0	65	1.02221255	96.6714503	115	65	1.1	0.9	5000.0000	0.0000	0.0000	0.0000;
	79	2	0	0	0	0	74	1.02001808	59.3330435	345	74	1.1	0.9	5000.0000	0.0000	0.0000	0.0000;
	80	2	2.73	0	0	0	69	1.01966843	97.3206839	115	69	1.1	0.9	5000.0000	0.0000	0.0000	0.0000;
	81	2	14.82	0	0	0	67	1.0221	87.7459012	115	67	1.1	0.9	5000.0000	0.0000	0.0000	0.0000;
	82	2	1.37	0	0	0	69	1.02	86.5527855	115	69	1.1	0.9	5000.0000	0.0000	0.0000	0.0000;
	83	1	4.1	0	0	0	69	1.02101959	96.5579999	115	69	1.1	0.9	5000.0000	0.0000	0.0000	0.0000;
	84	2	2.22	0	0	0	70	1.02	83.3646191	115	70	1.1	0.9	5000.0000	0.0000	0.0000	0.0000;
	85	1	1.74	0	0	0	65	1.02050197	94.7278175	115	65	1.1	0.9	5000.0000	0.0000	0.0000	0.0000;
	86	1	3.48	0	0	0	65	1.02056032	96.9375707	115	65	1.1	0.9	5000.0000	0.0000	0.0000	0.0000;
	87	1	5.21	0	0	0	65	1.01989403	96.9695463	115	65	1.1	0.9	5000.0000	0.0000	0.0000	0.0000;
	88	1	3.48	0	0	0	65	1.0196491	96.7987769	115	65	1.1	0.9	5000.0000	0.0000	0.0000	0.0000;
	89	1	1.74	0	0	0	65	1.01959159	96.7493214	115	65	1.1	0.9	5000.0000	0.0000	0.0000	0.0000;
	90	1	3.48	0	0	0	65	1.01958055	96.6621373	115	65	1.1	0.9	5000.0000	0.0000	0.0000	0.0000;
	91	1	3.48	0	0	0	65	1.01963507	96.5641342	115	65	1.1	0.9	5000.0000	0.0000	0.0000	0.0000;
	92	1	9.02	0	0	0	66	1.01919843	93.4238332	115	66	1.1	0.9	5000.0000	0.0000	0.0000	0.0000;
	93	1	9.02	0	0	0	66	1.01988817	94.0529927	115	66	1.1	0.9	5000.0000	0.0000	0.0000	0.0000;
	94	1	9.02	0	0	0	66	1.01518002	95.6657277	115	66	1.1	0.9	5000.0000	0.0000	0.0000	0.0000;
	95	2	4.51	0	0	0	66	1.01512143	95.6513473	115	66	1.1	0.9	5000.0000	0.0000	0.0000	0.0000;
	96	1	4.51	0	0	0	66	1.0156402	95.5314095	115	66	1.1	0.9	5000.0000	0.0000	0.0000	0.0000;
	97	1	9.02	0	0	0	66	1.01584893	95.5596989	115	66	1.1	0.9	5000.0000	0.0000	0.0000	0.0000;
	98	1	9.02	0	0	0	66	1.01808719	92.4311148	115	66	1.1	0.9	5000.0000	0.0000	0.0000	0.0000;
	99	1	9.02	0	0	0	66	1.01739722	92.3161491	115	66	1.1	0.9	5000.0000	0.0000	0.0000	0.0000;
	100	1	4.51	0	0	0	66	1.01704258	92.453906	115	66	1.1	0.9	5000.0000	0.0000	0.0000	0.0000;
	101	1	3.48	0	0	0	65	1.01076391	101.806481	115	65	1.1	0.9	5000.0000	0.0000	0.0000	0.0000;
	102	1	3.48	0	0	0	65	1.01077629	101.811936	115	65	1.1	0.9	5000.0000	0.0000	0.0000	0.0000;
	103	1	1.74	0	0	0	65	1.01109726	101.943871	115	65	1.1	0.9	5000.0000	0.0000	0.0000	0.0000;
	104	1	3.48	0	0	0	65	1.01515734	103.001043	115	65	1.1	0.9	5000.0000	0.0000	0.0000	0.0000;
	105	1	13.91	0	0	0	65	1.01490897	102.532081	115	65	1.1	0.9	5000.0000	0.0000	0.0000	0.0000;
	106	1	3.48	0	0	0	65	1.01497527	102.506287	115	65	1.1	0.9	5000.0000	0.0000	0.0000	0.0000;
	107	1	8.69	0	0	0	65	1.0153548	102.558848	115	65	1.1	0.9	5000.0000	0.0000	0.0000	0.0000;
	108	1	5.93	0	0	0	67	1.0224665	89.823806	115	67	1.1	0.9	5000.0000	0.0000	0.0000	0.0000;
	109	1	5.93	0	0	0	67	1.02147376	90.1055255	115	67	1.1	0.9	5000.0000	0.0000	0.0000	0.0000;
	110	1	8.89	0	0	0	67	1.0205303	88.2691383	115	67	1.1	0.9	5000.0000	0.0000	0.0000	0.0000;
	111	1	5.93	0	0	0	67	1.01935014	89.5031275	115	67	1.1	0.9	5000.0000	0.0000	0.0000	0.0000;
	112	1	5.93	0	0	0	67	1.01974072	87.2535891	115	67	1.1	0.9	5000.0000	0.0000	0.0000	0.0000;
	113	1	5.93	0	0	0	67	1.01917391	87.2187063	115	67	1.1	0.9	5000.0000	0.0000	0.0000	0.0000;
	114	1	5.93	0	0	0	67	1.01936458	87.3801837	115	67	1.1	0.9	5000.0000	0.0000	0.0000	0.0000;
	115	1	5.93	0	0	0	67	1.02174622	86.7069997	115	67	1.1	0.9	5000.0000	0.0000	0.0000	0.0000;
	116	2	5.93	0	0	0	67	1.02231517	87.6190629	115	67	1.1	0.9	5000.0000	0.0000	0.0000	0.0000;
	117	1	8.89	0	0	0	67	1.0215086	87.4741159	115	67	1.1	0.9	5000.0000	0.0000	0.0000	0.0000;
	118	1	5.93	0	0	0	67	1.02071591	87.104651	115	67	1.1	0.9	5000.0000	0.0000	0.0000	0.0000;
	119	1	5.93	0	0	0	67	1.02079941	87.1031136	115	67	1.1	0.9	5000.0000	0.0000	0.0000	0.0000;
	120	1	5.93	0	0	0	67	1.02113771	87.1971838	115	67	1.1	0.9	5000.0000	0.0000	0.0000	0.0000;
	121	1	5.93	0	0	0	67	1.02107759	87.3147717	115	67	1.1	0.9	5000.0000	0.0000	0.0000	0.0000;
	122	1	5.93	0	0	0	67	1.02156298	87.5097127	115	67	1.1	0.9	5000.0000	0.0000	0.0000	0.0000;
	123	1	5.93	0	0	0	67	1.02093988	87.252598	115	67	1.1	0.9	5000.0000	0.0000	0.0000	0.0000;
	124	1	17.78	0	0	0	67	1.01902365	90.4307536	115	67	1.1	0.9	5000.0000	0.0000	0.0000	0.0000;
	125	2	1.37	0	0	0	69	1.01889734	103.25293	115	69	1.1	0.9	5000.0000	0.0000	0.0000	0.0000;
	126	1	1.37	0	0	0	69	1.01892158	103.233083	115	69	1.1	0.9	5000.0000	0.0000	0.0000	0.0000;
	127	2	22.17	0	0	0	70	1.02	86.0637448	115	70	1.1	0.9	5000.0000	0.0000	0.0000	0.0000;
	128	2	27.05	0	0	0	66	1.02	109.246711	115	66	1.1	0.9	5000.0000	0.0000	0.0000	0.0000;
	129	1	13.53	0	0	0	66	1.02081515	100.261332	115	66	1.1	0.9	5000.0000	0.0000	0.0000	0.0000;
	130	1	4.51	0	0	0	66	1.01805005	100.807979	115	66	1.1	0.9	5000.0000	0.0000	0.0000	0.0000;
	131	1	17.78	0	0	0	67	1.01945908	92.7760378	115	67	1.1	0.9	5000.0000	0.0000	0.0000	0.0000;
	132	1	0	0	0	0	67	1.02137062	95.0389351	230	67	1.1	0.9	5000.0000	0.0000	0.0000	0.0000;
	133	1	8.89	0	0	0	67	1.01977248	89.5677174	115	67	1.1	0.9	5000.0000	0.0000	0.0000	0.0000;
	134	1	8.69	0	0	0	65	1.01749746	97.5861423	115	65	1.1	0.9	5000.0000	0.0000	0.0000	0.0000;
	135	1	3.48	0	0	0	65	1.01883784	98.2616637	115	65	1.1	0.9	5000.0000	0.0000	0.0000	0.0000;
	136	1	3.48	0	0	0	65	1.01794567	99.3638532	115	65	1.1	0.9	5000.0000	0.0000	0.0000	0.0000;
	137	1	3.48	0	0	0	65	1.02139371	100.499899	115	65	1.1	0.9	5000.0000	0.0000	0.0000	0.0000;
	138	2	0	0	0	0	65	1.02	100.12786	230	65	1.1	0.9	5000.0000	0.0000	0.0000	0.0000;
	139	1	5.21	0	0	0	65	1.0190926	97.2179031	115	65	1.1	0.9	5000.0000	0.0000	0.0000	0.0000;
	140	1	7.41	0	0	0	65	1.01912392	97.2200555	115	65	1.1	0.9	5000.0000	0.0000	0.0000	0.0000;
	141	1	3.48	0	0	0	65	1.01786575	97.8476183	115	65	1.1	0.9	5000.0000	0.0000	0.0000	0.0000;
	142	1	5.21	0	0	0	65	1.0176628	97.9944686	115	65	1.1	0.9	5000.0000	0.0000	0.0000	0.0000;
	143	1	3.48	0	0	0	65	1.02375266	100.65904	115	65	1.1	0.9	5000.0000	0.0000	0.0000	0.0000;
	144	1	3.48	0	0	0	65	1.02136563	100.704681	115	65	1.1	0.9	5000.0000	0.0000	0.0000	0.0000;
	145	1	5.21	0	0	0	65	1.02022196	100.734659	115	65	1.1	0.9	5000.0000	0.0000	0.0000	0.0000;
	146	1	1.74	0	0	0	65	1.01997829	100.657373	115	65	1.1	0.9	5000.0000	0.0000	0.0000	0.0000;
	147	1	2.96	0	0	0	67	1.01782174	90.6414379	115	67	1.1	0.9	5000.0000	0.0000	0.0000	0.0000;
	148	1	2.96	0	0	0	67	1.01871391	91.3628227	115	67	1.1	0.9	5000.0000	0.0000	0.0000	0.0000;
	149	1	8.89	0	0	0	67	1.01937909	91.0088162	115	67	1.1	0.9	5000.0000	0.0000	0.0000	0.0000;
	150	2	5.93	0	0	0	67	1.01997917	91.0362507	115	67	1.1	0.9	5000.0000	0.0000	0.0000	0.0000;
	151	1	2.96	0	0	0	67	1.01999769	91.031969	115	67	1.1	0.9	5000.0000	0.0000	0.0000	0.0000;
	152	1	5.93	0	0	0	67	1.01553667	92.6888363	115	67	1.1	0.9	5000.0000	0.0000	0.0000	0.0000;
	153	1	2.96	0	0	0	67	1.01444817	90.4286318	115	67	1.1	0.9	5000.0000	0.0000	0.0000	0.0000;
	154	1	8.89	0	0	0	67	1.0131229	91.5422326	115	67	1.1	0.9	5000.0000	0.0000	0.0000	0.0000;
	155	1	2.96	0	0	0	67	1.01293268	91.4998992	115	67	1.1	0.9	5000.0000	0.0000	0.0000	0.0000;
	156	1	5.93	0	0	0	67	1.0126179	91.3893851	115	67	1.1	0.9	5000.0000	0.0000	0.0000	0.0000;
	157	1	2.96	0	0	0	67	1.01260872	91.3835758	115	67	1.1	0.9	5000.0000	0.0000	0.0000	0.0000;
	158	1	2.96	0	0	0	67	1.0127111	91.4051184	115	67	1.1	0.9	5000.0000	0.0000	0.0000	0.0000;
	159	1	3.48	0	0	0	65	1.02312693	100.517538	115	65	1.1	0.9	5000.0000	0.0000	0.0000	0.0000;
	160	1	1.74	0	0	0	65	1.02083501	100.542547	115	65	1.1	0.9	5000.0000	0.0000	0.0000	0.0000;
	161	2	3.48	0	0	0	65	1.02	99.4727365	115	65	1.1	0.9	5000.0000	0.0000	0.0000	0.0000;
	162	1	6.95	0	0	0	65	1.01988175	99.4708362	115	65	1.1	0.9	5000.0000	0.0000	0.0000	0.0000;
	163	1	8.69	0	0	0	65	1.0195319	99.4782707	115	65	1.1	0.9	5000.0000	0.0000	0.0000	0.0000;
	164	1	1.74	0	0	0	65	1.01952888	99.4775411	115	65	1.1	0.9	5000.0000	0.0000	0.0000	0.0000;
	165	1	1.74	0	0	0	65	1.01769876	100.788068	115	65	1.1	0.9	5000.0000	0.0000	0.0000	0.0000;
	166	1	1.74	0	0	0	65	1.01785658	100.828175	115	65	1.1	0.9	5000.0000	0.0000	0.0000	0.0000;
	167	1	5.93	0	0	0	67	1.00709496	97.0302968	115	67	1.1	0.9	5000.0000	0.0000	0.0000	0.0000;
	168	1	1.37	0	0	0	69	1.00665581	93.4096828	115	69	1.1	0.9	5000.0000	0.0000	0.0000	0.0000;
	169	1	5.93	0	0	0	67	1.00618832	96.4291707	115	67	1.1	0.9	5000.0000	0.0000	0.0000	0.0000;
	170	1	5.93	0	0	0	67	1.00594116	96.2400703	115	67	1.1	0.9	5000.0000	0.0000	0.0000	0.0000;
	171	1	23.7	0	0	0	67	1.00599692	96.2474882	115	67	1.1	0.9	5000.0000	0.0000	0.0000	0.0000;
	172	1	5.93	0	0	0	67	1.00655593	96.9100596	115	67	1.1	0.9	5000.0000	0.0000	0.0000	0.0000;
	173	1	8.89	0	0	0	67	1.00789841	97.7863542	115	67	1.1	0.9	5000.0000	0.0000	0.0000	0.0000;
	174	1	5.93	0	0	0	67	1.00714753	97.5821211	115	67	1.1	0.9	5000.0000	0.0000	0.0000	0.0000;
	175	1	5.93	0	0	0	67	1.00702524	97.5829352	115	67	1.1	0.9	5000.0000	0.0000	0.0000	0.0000;
	176	1	5.93	0	0	0	67	1.0062303	97.4226049	115	67	1.1	0.9	5000.0000	0.0000	0.0000	0.0000;
	177	1	2.96	0	0	0	67	1.00636359	97.460598	115	67	1.1	0.9	5000.0000	0.0000	0.0000	0.0000;
	178	2	8.89	0	0	0	67	1.00629109	97.4388998	115	67	1.1	0.9	5000.0000	0.0000	0.0000	0.0000;
	179	1	5.93	0	0	0	67	1.00638368	97.4592916	115	67	1.1	0.9	5000.0000	0.0000	0.0000	0.0000;
	180	1	5.93	0	0	0	67	1.00739189	97.684633	115	67	1.1	0.9	5000.0000	0.0000	0.0000	0.0000;
	181	1	5.93	0	0	0	67	1.00625735	97.4304772	115	67	1.1	0.9	5000.0000	0.0000	0.0000	0.0000;
	182	1	5.93	0	0	0	67	1.00526473	99.3461276	115	67	1.1	0.9	5000.0000	0.0000	0.0000	0.0000;
	183	1	5.93	0	0	0	67	1.00528981	99.35232	115	67	1.1	0.9	5000.0000	0.0000	0.0000	0.0000;
	184	1	5.93	0	0	0	67	1.00859205	97.9787871	115	67	1.1	0.9	5000.0000	0.0000	0.0000	0.0000;
	185	1	5.93	0	0	0	67	1.00583837	99.1529551	115	67	1.1	0.9	5000.0000	0.0000	0.0000	0.0000;
	186	1	4.1	0	0	0	69	1.02209071	81.8080714	115	69	1.1	0.9	5000.0000	0.0000	0.0000	0.0000;
	187	1	2.73	0	0	0	69	1.02112091	82.7103739	115	69	1.1	0.9	5000.0000	0.0000	0.0000	0.0000;
	188	1	2.73	0	0	0	69	1.00223464	77.7700136	115	69	1.1	0.9	5000.0000	0.0000	0.0000	0.0000;
	189	1	1.37	0	0	0	69	1.00666985	79.5538822	115	69	1.1	0.9	5000.0000	0.0000	0.0000	0.0000;
	190	1	30.18	0	0	0	68	1.00096474	87.9957122	115	68	1.1	0.9	5000.0000	0.0000	0.0000	0.0000;
	191	1	30.18	0	0	0	68	0.992025522	81.236856	115	68	1.1	0.9	5000.0000	0.0000	0.0000	0.0000;
	192	1	45.27	0	0	0	68	0.998665855	83.8989931	115	68	1.1	0.9	5000.0000	0.0000	0.0000	0.0000;
	193	2	60.36	0	0	0	68	0.994030001	83.5091993	115	68	1.1	0.9	5000.0000	0.0000	0.0000	0.0000;
	194	2	13.3	0	0	0	70	1.01750981	82.2737301	115	70	1.1	0.9	5000.0000	0.0000	0.0000	0.0000;
	195	1	4.43	0	0	0	70	1.01748021	82.2660392	115	70	1.1	0.9	5000.0000	0.0000	0.0000	0.0000;
	196	1	4.43	0	0	0	70	1.01704737	82.2211974	115	70	1.1	0.9	5000.0000	0.0000	0.0000	0.0000;
	197	1	9.02	0	0	0	66	1.02076001	102.779511	115	66	1.1	0.9	5000.0000	0.0000	0.0000	0.0000;
	198	1	9.02	0	0	0	66	1.00926565	100.871924	115	66	1.1	0.9	5000.0000	0.0000	0.0000	0.0000;
	199	2	9.02	0	0	0	66	1.01521101	101.421779	115	66	1.1	0.9	5000.0000	0.0000	0.0000	0.0000;
	200	1	13.53	0	0	0	66	1.01219572	102.017732	115	66	1.1	0.9	5000.0000	0.0000	0.0000	0.0000;
...
];

%% generator data
%	bus	Pg	Qg	Qmax	Qmin	Vg	mBase	status	Pmax	Pmin	Pc1	Pc2	Qc1min	Qc1max	Qc2min	Qc2max	ramp_agc	ramp_10	ramp_30	ramp_q	apf	mu_Pmax	mu_Pmin	mu_Qmax	mu_Qmin
mpc.gen = [
	6	2.760714	-0.38124807	1.8	-1.5	1.02	100	1	2.8	1	0	0	0	0	0	0	0	5000	15000	0	0	0.0000	0.0000	0.0000	0.0000;
	6	2.760714	-0.38124807	1.8	-1.5	1.02	100	1	2.8	1	0	0	0	0	0	0	0	5000	15000	0	0	0.0000	0.0000	0.0000	0.0000;
	6	2.957908	-0.445641775	2	-1.7	1.02	100	1	3	1	0	0	0	0	0	0	0	5000	15000	0	0	0.0000	0.0000	0.0000	0.0000;
	6	2.957908	-0.445641775	2	-1.7	1.02	100	1	3	1	0	0	0	0	0	0	0	5000	15000	0	0	0.0000	0.0000	0.0000	0.0000;
	15	7.887755	-2.75848241	5.2	-4.4	1.02	100	1	8	7	0	0	0	0	0	0	0	5000	15000	0	0	0.0000	0.0000	0.0000	0.0000;
	15	7.887755	-2.75848241	5.2	-4.4	1.02	100	1	8	7	0	0	0	0	0	0	0	5000	15000	0	0	0.0000	0.0000	0.0000	0.0000;
	17	0	0	11.7	-9.9	1.01	100	0	18.000001	10.5	0	0	0	0	0	0	0	101	303	0	0	0.0000	0.0000	0.0000	0.0000;
	17	0	0	11.7	-9.9	1.01	100	0	18.000001	11.4	0	0	0	0	0	0	0	102.5	307.5	0	0	0.0000	0.0000	0.0000	0.0000;
	17	0	0	11.7	-9.9	1.01	100	0	18.000001	11	0	0	0	0	0	0	0	100.5	301.5	0	0	0.0000	0.0000	0.0000	0.0000;
	17	0	0	11.7	-9.9	1.01	100	0	18.000001	11.2	0	0	0	0	0	0	0	99.5	298.5	0	0	0.0000	0.0000	0.0000	0.0000;
	17	0	0	11.7	-9.9	1.01	100	0	18.000001	11.4	0	0	0	0	0	0	0	76	228	0	0	0.0000	0.0000	0.0000	0.0000;
	17	0	0	11.7	-9.9	1.01	100	0	18.000001	10.7	0	0	0	0	0	0	0	102.5	307.5	0	0	0.0000	0.0000	0.0000	0.0000;
	17	0	0	11.7	-9.9	1.01	100	0	18.000001	9	0	0	0	0	0	0	0	102	306	0	0	0.0000	0.0000	0.0000	0.0000;
	17	0	0	27.200001	-23	1.01	100	0	41.800001	29.800001	0	0	0	0	0	0	0	246	738	0	0	0.0000	0.0000	0.0000	0.0000;
	17	0	0	27.200001	-23	1.01	100	0	41.800001	30.000001	0	0	0	0	0	0	0	250	750	0	0	0.0000	0.0000	0.0000	0.0000;
	17	0	0	27.200001	-23	1.01	100	0	41.800001	30.000001	0	0	0	0	0	0	0	252.5	757.5	0	0	0.0000	0.0000	0.0000	0.0000;
	17	0	0	27.200001	-23	1.01	100	0	41.800001	30.000001	0	0	0	0	0	0	0	243.5	730.5	0	0	0.0000	0.0000	0.0000	0.0000;
	17	0	0	122.2	-103.400004	1.01	100	0	188	15.000001	0	0	0	0	0	0	0	79.8	239.4	0	0	0.0000	0.0000	0.0000	0.0000;
	17	0	0	122.2	-103.400004	1.01	100	0	188	15.000001	0	0	0	0	0	0	0	76.2	228.6	0	0	0.0000	0.0000	0.0000	0.0000;
	18	0	0	10.4	-8.8	1.01	100	0	16	10	0	0	0	0	0	0	0	88	264	0	0	0.0000	0.0000	0.0000	0.0000;
	18	0	0	34.5	-29.2	1.01	100	0	52.999997	37	0	0	0	0	0	0	0	235	705	0	0	0.0000	0.0000	0.0000	0.0000;
	18	0	0	34.5	-29.2	1.01	100	0	52.999997	37	0	0	0	0	0	0	0	235	705	0	0	0.0000	0.0000	0.0000	0.0000;
	18	0	0	35.800001	-30.3	1.01	100	0	55.000001	40.000001	0	0	0	0	0	0	0	275.5	826.5	0	0	0.0000	0.0000	0.0000	0.0000;
	18	0	0	35.800001	-30.3	1.01	100	0	55.000001	44.100001	0	0	0	0	0	0	0	343	1029	0	0	0.0000	0.0000	0.0000	0.0000;
	19	0	0	10.4	-8.8	1.02	100	0	16	10.6	0	0	0	0	0	0	0	79	237	0	0	0.0000	0.0000	0.0000	0.0000;
	19	0	0	251.600003	-212.899995	1.02	100	0	386.999989	40.000001	0	0	0	0	0	0	0	159.6	478.8	0	0	0.0000	0.0000	0.0000	0.0000;
	19	384.54771	16.8372118	251.600003	-212.899995	1.02	100	1	386.999989	30.000001	0	0	0	0	0	0	0	157.68	473.04	0	0	0.0000	0.0000	0.0000	0.0000;
	19	386.999989	16.8372118	251.600003	-212.899995	1.02	100	1	386.999989	40.000001	0	0	0	0	0	0	0	158.6	475.8	0	0	0.0000	0.0000	0.0000	0.0000;
	19	386.999989	16.8372118	251.600003	-212.899995	1.02	100	1	386.999989	40.000001	0	0	0	0	0	0	0	158.48	475.44	0	0	0.0000	0.0000	0.0000	0.0000;
	19	0	-107.111488	9900	-9900	1.02	100	1	200	0	0	0	0	0	0	0	0	0	0	0	0	0.0000	0.0000	0.0000	0.0000;
	21	10.845663	3.84721967	7.2	-6.1	1.02	100	1	11	0.2	0	0	0	0	0	0	0	5000	15000	0	0	0.0000	0.0000	0.0000	0.0000;
	21	11.831632	4.16992205	7.8	-6.6	1.02	100	1	12	0.2	0	0	0	0	0	0	0	5000	15000	0	0	0.0000	0.0000	0.0000	0.0000;
	21	12.817602	4.54220667	8.5	-7.2	1.02	100	1	13	0.2	0	0	0	0	0	0	0	5000	15000	0	0	0.0000	0.0000	0.0000	0.0000;
	24	8.873725	4.73352056	5.9	-5	1.02	100	1	9	3	0	0	0	0	0	0	0	5000	15000	0	0	0.0000	0.0000	0.0000	0.0000;
	24	8.873725	4.73352056	5.9	-5	1.02	100	1	9	3	0	0	0	0	0	0	0	5000	15000	0	0	0.0000	0.0000	0.0000	0.0000;
	24	8.873725	4.73352056	5.9	-5	1.02	100	1	9	3	0	0	0	0	0	0	0	5000	15000	0	0	0.0000	0.0000	0.0000	0.0000;
	24	8.873725	4.73352056	5.9	-5	1.02	100	1	9	3	0	0	0	0	0	0	0	5000	15000	0	0	0.0000	0.0000	0.0000	0.0000;
	26	594.999981	25.0830871	446.25001	-416.499996	1.02	100	1	594.999981	320.000005	0	0	0	0	0	0	0	900	2700	0	0	0.0000	0.0000	0.0000	0.0000;
	26	650	27.4016748	487.5	-455.000019	1.02	100	1	650	320.000005	0	0	0	0	0	0	0	900	2700	0	0	0.0000	0.0000	0.0000	0.0000;
	27	0	0	91.949999	-85.820001	1.02	100	0	122.599995	41.999999	0	0	0	0	0	0	0	890	2670	0	0	0.0000	0.0000	0.0000	0.0000;
	28	0	0	47.174999	-44.029999	1.02	100	0	62.900001	34.999999	0	0	0	0	0	0	0	560	1680	0	0	0.0000	0.0000	0.0000	0.0000;
	29	0	0	72.799999	-61.6	1.02	100	0	112	31.999999	0	0	0	0	0	0	0	42.52	127.56	0	0	0.0000	0.0000	0.0000	0.0000;
	30	3	0.0665956128	2.7	-2.3	1.02	100	1	4.1	0	0	0	0	0	0	0	0	0	0	0	0	0.0000	0.0000	0.0000	0.0000;
	30	6.286968	0.975721597	36.000001	-30.500001	1.02	100	1	55.400002	0	0	0	0	0	0	0	0	0	0	0	0	0.0000	0.0000	0.0000	0.0000;
	31	0.985969	-0.228830783	0.7	-0.6	1.02	100	1	1	0.2	0	0	0	0	0	0	0	5000	15000	0	0	0.0000	0.0000	0.0000	0.0000;
	31	0.985969	-0.228830783	0.7	-0.6	1.02	100	1	1	0.2	0	0	0	0	0	0	0	5000	15000	0	0	0.0000	0.0000	0.0000	0.0000;
	31	2.563521	-0.514904174	1.7	-1.4	1.02	100	1	2.6	0.9	0	0	0	0	0	0	0	5000	15000	0	0	0.0000	0.0000	0.0000	0.0000;
	31	2.563521	-0.514904174	1.7	-1.4	1.02	100	1	2.6	0.9	0	0	0	0	0	0	0	5000	15000	0	0	0.0000	0.0000	0.0000	0.0000;
	31	2.563521	-0.514904174	1.7	-1.4	1.02	100	1	2.6	2.3	0	0	0	0	0	0	0	5000	15000	0	0	0.0000	0.0000	0.0000	0.0000;
	31	24.254847	-5.07731463	16	-13.500001	1.02	100	1	24.600001	6	0	0	0	0	0	0	0	5000	15000	0	0	0.0000	0.0000	0.0000	0.0000;
	31	24.254847	-5.07731463	16	-13.500001	1.02	100	1	24.600001	6	0	0	0	0	0	0	0	5000	15000	0	0	0.0000	0.0000	0.0000	0.0000;
	32	0	0	110.249996	-102.900004	1.02	100	0	147.000003	113	0	0	0	0	0	0	0	650	1950	0	0	0.0000	0.0000	0.0000	0.0000;
	33	0	0	42.449999	-39.62	1.02	100	0	56.599998	44	0	0	0	0	0	0	0	540	1620	0	0	0.0000	0.0000	0.0000	0.0000;
	34	0	0	43.05	-40.180001	1.02	100	0	57.4	44.499999	0	0	0	0	0	0	0	500	1500	0	0	0.0000	0.0000	0.0000	0.0000;
	35	3.155102	2.1	2.1	-1.8	1.02	100	1	3.2	0	0	0	0	0	0	0	0	5000	15000	0	0	0.0000	0.0000	0.0000	0.0000;
	35	3.155102	2.1	2.1	-1.8	1.02	100	1	3.2	0	0	0	0	0	0	0	0	5000	15000	0	0	0.0000	0.0000	0.0000	0.0000;
	35	3.943877	2.6	2.6	-2.2	1.02	100	1	4	0	0	0	0	0	0	0	0	5000	15000	0	0	0.0000	0.0000	0.0000	0.0000;
	35	3.943877	2.6	2.6	-2.2	1.02	100	1	4	0	0	0	0	0	0	0	0	5000	15000	0	0	0.0000	0.0000	0.0000	0.0000;
	35	5.915816	3.9	3.9	-3.3	1.02	100	1	6	0	0	0	0	0	0	0	0	5000	15000	0	0	0.0000	0.0000	0.0000	0.0000;
	35	6.901786	4.6	4.6	-3.9	1.02	100	1	7	0	0	0	0	0	0	0	0	5000	15000	0	0	0.0000	0.0000	0.0000	0.0000;
	37	196.249998	-2.66870413	165.974998	-154.910004	1.02	100	1	221.300006	103.999996	0	0	0	0	0	0	0	1590	4770	0	0	0.0000	0.0000	0.0000	0.0000;
	38	12	5.22252483	70.4	-55.299997	1.02	100	1	100.5	0	0	0	0	0	0	0	0	0	0	0	0	0.0000	0.0000	0.0000	0.0000;
	39	8	-2.87981196	88.200003	-69.300002	1.02	100	1	125.999999	0	0	0	0	0	0	0	0	0	0	0	0	0.0000	0.0000	0.0000	0.0000;
	41	0	0	49.274999	-45.989999	1.02	100	0	65.700001	40.599999	0	0	0	0	0	0	0	580	1740	0	0	0.0000	0.0000	0.0000	0.0000;
	52	6.286968	-0.427900496	11.3	-8.9	1.02	100	1	16.2	0	0	0	0	0	0	0	0	0	0	0	0	0.0000	0.0000	0.0000	0.0000;
	53	6.286968	0.26600234	26.300001	-20.6	1.02	100	1	37.5	0	0	0	0	0	0	0	0	0	0	0	0	0.0000	0.0000	0.0000	0.0000;
	60	0.788776	0.0165662584	0.6	-0.4	1.02	100	1	0.8	0.4	0	0	0	0	0	0	0	5000	15000	0	0	0.0000	0.0000	0.0000	0.0000;
	60	9.859694	-0.29292177	7	-5.5	1.02	100	1	10	4	0	0	0	0	0	0	0	5000	15000	0	0	0.0000	0.0000	0.0000	0.0000;
	63	0	0	66.149998	-61.739999	1.02	100	0	88.199997	60.000002	0	0	0	0	0	0	0	750	2250	0	0	0.0000	0.0000	0.0000	0.0000;
	63	653.643417	34.855989	490.275002	-457.590008	1.02	100	1	653.700018	315.00001	0	0	0	0	0	0	0	900	2700	0	0	0.0000	0.0000	0.0000	0.0000;
	69	0	0	17.200001	-13.500001	1.02	100	0	24.5	5	0	0	0	0	0	0	0	10	30	0	0	0.0000	0.0000	0.0000	0.0000;
	69	0	0	17.200001	-13.500001	1.02	100	0	24.5	5	0	0	0	0	0	0	0	10	30	0	0	0.0000	0.0000	0.0000	0.0000;
	69	0	0	33.1	-25.999999	1.02	100	0	47.299999	9	0	0	0	0	0	0	0	235	705	0	0	0.0000	0.0000	0.0000	0.0000;
	69	0	2.20383088	20	-20	1.02	100	1	200	0	0	0	0	0	0	0	0	0	0	0	0	0.0000	0.0000	0.0000	0.0000;
	79	0	0	0.7	-0.6	1.02	100	0	1	0.3	0	0	0	0	0	0	0	2	6	0	0	0.0000	0.0000	0.0000	0.0000;
	79	0	0	0.9	-0.7	1.02	100	0	1.3	0.4	0	0	0	0	0	0	0	2.6	7.8	0	0	0.0000	0.0000	0.0000	0.0000;
	79	0	0	1	-0.8	1.02	100	0	1.4	0.4	0	0	0	0	0	0	0	2.8	8.4	0	0	0.0000	0.0000	0.0000	0.0000;
	79	0	0	1	-0.8	1.02	100	0	1.4	0.4	0	0	0	0	0	0	0	2.8	8.4	0	0	0.0000	0.0000	0.0000	0.0000;
	79	0	0	1.8	-1.4	1.02	100	0	2.5	0.1	0	0	0	0	0	0	0	0.6	1.8	0	0	0.0000	0.0000	0.0000	0.0000;
	79	0	0	1.9	-1.5	1.02	100	0	2.7	0.8	0	0	0	0	0	0	0	5.4	16.2	0	0	0.0000	0.0000	0.0000	0.0000;
	79	0	0	1.9	-1.5	1.02	100	0	2.7	0.8	0	0	0	0	0	0	0	5.4	16.2	0	0	0.0000	0.0000	0.0000	0.0000;
	79	0	0	2.1	-1.7	1.02	100	0	3	0.1	0	0	0	0	0	0	0	0.8	2.4	0	0	0.0000	0.0000	0.0000	0.0000;
	79	0	0	2.1	-1.7	1.02	100	0	3	0.1	0	0	0	0	0	0	0	0.8	2.4	0	0	0.0000	0.0000	0.0000	0.0000;
	79	0	0	5.3	-4.1	1.02	100	0	7.5	4	0	0	0	0	0	0	0	37.5	112.5	0	0	0.0000	0.0000	0.0000	0.0000;
	79	0	0	32.9	-25.9	1.02	100	0	47	1	0	0	0	0	0	0	0	233	699	0	0	0.0000	0.0000	0.0000	0.0000;
	79	0	0	109.300005	-85.900003	1.02	100	0	156.200004	44.999999	0	0	0	0	0	0	0	59.48	178.44	0	0	0.0000	0.0000	0.0000	0.0000;
	79	0	0	125.999999	-99.000001	1.02	100	0	179.999995	110.000002	0	0	0	0	0	0	0	398.2	1194.6	0	0	0.0000	0.0000	0.0000	0.0000;
	79	0	0	125.999999	-99.000001	1.02	100	0	179.999995	110.000002	0	0	0	0	0	0	0	390	1170	0	0	0.0000	0.0000	0.0000	0.0000;
	79	0	0	139.999998	-110.000002	1.02	100	0	200	64.999998	0	0	0	0	0	0	0	72.12	216.36	0	0	0.0000	0.0000	0.0000	0.0000;
	80	0	0	38.9	-30.500001	1.02	100	0	55.500001	15.000001	0	0	0	0	0	0	0	0	0	0	0	0.0000	0.0000	0.0000	0.0000;
	81	0	-9.97497885	20	-20	1.0221	100	1	200	0	0	0	0	0	0	0	0	0	0	0	0	0.0000	0.0000	0.0000	0.0000;
	82	6.286968	-1.23334064	24.2	-19	1.02	100	1	34.5	0	0	0	0	0	0	0	0	0	0	0	0	0.0000	0.0000	0.0000	0.0000;
	83	7.887755	-4.4	5.6	-4.4	1.02	100	1	8	4	0	0	0	0	0	0	0	5000	15000	0	0	0.0000	0.0000	0.0000	0.0000;
	83	7.887755	-4.4	5.6	-4.4	1.02	100	1	8	4	0	0	0	0	0	0	0	5000	15000	0	0	0.0000	0.0000	0.0000	0.0000;
	84	10.845663	-1.81073135	7.7	-6.1	1.02	100	1	11	1	0	0	0	0	0	0	0	5000	15000	0	0	0.0000	0.0000	0.0000	0.0000;
	84	10.845663	-1.81073135	7.7	-6.1	1.02	100	1	11	1	0	0	0	0	0	0	0	5000	15000	0	0	0.0000	0.0000	0.0000	0.0000;
	95	0	0	50.25	-46.900001	1.02	100	0	67.000002	37	0	0	0	0	0	0	0	510	1530	0	0	0.0000	0.0000	0.0000	0.0000;
	116	0	0	33.399999	-26.199999	1.02	100	0	47.7	41.999999	0	0	0	0	0	0	0	235	705	0	0	0.0000	0.0000	0.0000	0.0000;
	125	0	0	1.4	-1.1	1.02	100	0	2	0.1	0	0	0	0	0	0	0	4	12	0	0	0.0000	0.0000	0.0000	0.0000;
	125	0	0	76.574999	-71.469998	1.02	100	0	102.100003	75.999999	0	0	0	0	0	0	0	780	2340	0	0	0.0000	0.0000	0.0000	0.0000;
	127	708.878994	-56.8629686	669.824982	-625.169992	1.02	100	1	893.099976	666.400003	0	0	0	0	0	0	0	1200	3600	0	0	0.0000	0.0000	0.0000	0.0000;
	128	610.109282	-79.0947163	429.799986	-337.700009	1.02	100	1	613.999987	461.000013	0	0	0	0	0	0	0	15.106	45.318	0	0	0.0000	0.0000	0.0000	0.0000;
	150	0	0	0.7	-0.6	1.02	100	0	1	0.3	0	0	0	0	0	0	0	2	6	0	0	0.0000	0.0000	0.0000	0.0000;
	150	0	0	0.7	-0.6	1.02	100	0	1	0.3	0	0	0	0	0	0	0	2	6	0	0	0.0000	0.0000	0.0000	0.0000;
	150	0	0	12.6	-11.76	1.02	100	0	16.8	8.2	0	0	0	0	0	0	0	140	420	0	0	0.0000	0.0000	0.0000	0.0000;
	150	0	0	15.525	-14.489999	1.02	100	0	20.7	8.4	0	0	0	0	0	0	0	170	510	0	0	0.0000	0.0000	0.0000	0.0000;
	161	6.286968	4.26569008	14	-11	1.02	100	1	20	0	0	0	0	0	0	0	0	0	0	0	0	0.0000	0.0000	0.0000	0.0000;
	178	0	0	77.025002	-71.890002	1.02	100	0	102.699995	44.999999	0	0	0	0	0	0	0	540	1620	0	0	0.0000	0.0000	0.0000	0.0000;
	193	0	0	214.199996	-199.919999	1.02	100	0	285.599995	89.999998	0	0	0	0	0	0	0	900	2700	0	0	0.0000	0.0000	0.0000	0.0000;
	194	0	0	14	-11	1.02	100	0	20	0	0	0	0	0	0	0	0	200	600	0	0	0.0000	0.0000	0.0000	0.0000;
	199	0	0	5	-4	1.02	100	0	7.2	1	0	0	0	0	0	0	0	2.88	8.64	0	0	0.0000	0.0000	0.0000	0.0000;
	199	0	0	12.7	-10	1.02	100	0	18.2	2	0	0	0	0	0	0	0	10	30	0	0	0.0000	0.0000	0.0000	0.0000;
	212	0	0	0.6	-0.4	1.02	100	0	0.8	0.6	0	0	0	0	0	0	0	0	0	0	0	0.0000	0.0000	0.0000	0.0000;
	212	0	0	0.6	-0.4	1.02	100	0	0.8	0.6	0	0	0	0	0	0	0	0	0	0	0	0.0000	0.0000	0.0000	0.0000;
	212	0	0	0.6	-0.4	1.02	100	0	0.8	0.6	0	0	0	0	0	0	0	0	0	0	0	0.0000	0.0000	0.0000	0.0000;
	212	0	0	0.6	-0.4	1.02	100	0	0.8	0.6	0	0	0	0	0	0	0	0	0	0	0	0.0000	0.0000	0.0000	0.0000;
	212	0	0	0.6	-0.4	1.02	100	0	0.8	0.6	0	0	0	0	0	0	0	0	0	0	0	0.0000	0.0000	0.0000	0.0000;
	212	0	0	0.6	-0.4	1.02	100	0	0.8	0.6	0	0	0	0	0	0	0	0	0	0	0	0.0000	0.0000	0.0000	0.0000;
	212	0	0	0.6	-0.4	1.02	100	0	0.8	0.6	0	0	0	0	0	0	0	0	0	0	0	0.0000	0.0000	0.0000	0.0000;
	212	0	0	0.6	-0.4	1.02	100	0	0.8	0.6	0	0	0	0	0	0	0	0	0	0	0	0.0000	0.0000	0.0000	0.0000;
	212	0	0	1.1	-0.9	1.02	100	0	1.6	0.8	0	0	0	0	0	0	0	0	0	0	0	0.0000	0.0000	0.0000	0.0000;
	212	0	0	1.1	-0.9	1.02	100	0	1.6	0.8	0	0	0	0	0	0	0	0	0	0	0	0.0000	0.0000	0.0000	0.0000;
	212	0	0	1.1	-0.9	1.02	100	0	1.6	0.8	0	0	0	0	0	0	0	0	0	0	0	0.0000	0.0000	0.0000	0.0000;
	234	0	0	0.8	-0.6	1.02	100	0	1.1	0.5	0	0	0	0	0	0	0	2	6	0	0	0.0000	0.0000	0.0000	0.0000;
	234	0	0	49.649999	-46.340001	1.02	100	0	66.2	48.800001	0	0	0	0	0	0	0	510	1530	0	0	0.0000	0.0000	0.0000	0.0000;
	250	0	0	0.3	-0.2	1.02	100	0	0.4	0.1	0	0	0	0	0	0	0	5000	15000	0	0	0.0000	0.0000	0.0000	0.0000;
	250	0	0	2.1	-1.7	1.02	100	0	3	0.4	0	0	0	0	0	0	0	0.0572	0.1716	0	0	0.0000	0.0000	0.0000	0.0000;
	250	0	0	8.8	-6.9	1.02	100	0	12.5	4	0	0	0	0	0	0	0	0.325	0.975	0	0	0.0000	0.0000	0.0000	0.0000;
	250	12.620409	5.87855888	9	-7	1.02	100	1	12.800001	0	0	0	0	0	0	0	0	5000	15000	0	0	0.0000	0.0000	0.0000	0.0000;
	250	12.620409	5.87855888	9	-7	1.02	100	1	12.800001	0	0	0	0	0	0	0	0	5000	15000	0	0	0.0000	0.0000	0.0000	0.0000;
	250	0	0	10.5	-8.3	1.02	100	0	15.000001	4	0	0	0	0	0	0	0	0.39	1.17	0	0	0.0000	0.0000	0.0000	0.0000;
	250	17.74745	8.21047343	12.6	-9.9	1.02	100	1	18.000001	0	0	0	0	0	0	0	0	5000	15000	0	0	0.0000	0.0000	0.0000	0.0000;
	250	0	0	17.900001	-14.1	1.02	100	0	25.600001	5	0	0	0	0	0	0	0	0.6656	1.9968	0	0	0.0000	0.0000	0.0000	0.0000;
	250	0	0	17.900001	-14.1	1.02	100	0	25.600001	5	0	0	0	0	0	0	0	0.6656	1.9968	0	0	0.0000	0.0000	0.0000	0.0000;
	250	0	0	17.900001	-14.1	1.02	100	0	25.600001	5	0	0	0	0	0	0	0	0.6656	1.9968	0	0	0.0000	0.0000	0.0000	0.0000;
	250	0	0	17.900001	-14.1	1.02	100	0	25.600001	5	0	0	0	0	0	0	0	0.6656	1.9968	0	0	0.0000	0.0000	0.0000	0.0000;
	284	0	0	17.5	-13.8	1.02	100	0	25	3	0	0	0	0	0	0	0	0	0	0	0	0.0000	0.0000	0.0000	0.0000;
	284	0	0	17.5	-13.8	1.02	100	0	25	3	0	0	0	0	0	0	0	0	0	0	0	0.0000	0.0000	0.0000	0.0000;
	317	0	0	44.925001	-41.929999	1.02	100	0	59.899998	40.000001	0	0	0	0	0	0	0	490	1470	0	0	0.0000	0.0000	0.0000	0.0000;
	339	0	0	27.700001	-21.699999	1.02	100	0	39.500001	3.5	0	0	0	0	0	0	0	0	0	0	0	0.0000	0.0000	0.0000	0.0000;
	357	877.702904	-13.5170669	618.300009	-485.79998	1.02	100	1	883.300018	661.999989	0	0	0	0	0	0	0	22.2014	66.6042	0	0	0.0000	0.0000	0.0000	0.0000;
	358	542.534351	-24.5548655	407.175016	-380.029988	1.02	100	1	542.89999	225	0	0	0	0	0	0	0	900	2700	0	0	0.0000	0.0000	0.0000	0.0000;
	358	543.200016	-24.5684595	407.399988	-380.240011	1.02	100	1	543.200016	225	0	0	0	0	0	0	0	900	2700	0	0	0.0000	0.0000	0.0000	0.0000;
	368	6	16.4419833	20.999999	-16.500001	1.02	100	1	30.000001	0.1	0	0	0	0	0	0	0	0	0	0	0	0.0000	0.0000	0.0000	0.0000;
	378	3.943877	0.214261261	2.8	-2.2	1.02	100	1	4	2.8	0	0	0	0	0	0	0	5000	15000	0	0	0.0000	0.0000	0.0000	0.0000;
	378	3.943877	0.214261261	2.8	-2.2	1.02	100	1	4	2.8	0	0	0	0	0	0	0	5000	15000	0	0	0.0000	0.0000	0.0000	0.0000;
	378	3.943877	0.214261261	2.8	-2.2	1.02	100	1	4	2.8	0	0	0	0	0	0	0	5000	15000	0	0	0.0000	0.0000	0.0000	0.0000;
	381	0	0	0.8	-0.6	1.02	100	0	1.1	0.2	0	0	0	0	0	0	0	2.2	6.6	0	0	0.0000	0.0000	0.0000	0.0000;
	381	0	0	48.15	-44.940001	1.02	100	0	64.200002	47	0	0	0	0	0	0	0	540	1620	0	0	0.0000	0.0000	0.0000	0.0000;
	395	6.286968	-6.07799106	23.100001	-18.2	1.02	100	1	33.000001	0.3	0	0	0	0	0	0	0	0	0	0	0	0.0000	0.0000	0.0000	0.0000;
	395	7.3	-11.205103	42.699999	-33.6	1.02	100	1	61.000001	0.5	0	0	0	0	0	0	0	0	0	0	0	0.0000	0.0000	0.0000	0.0000;
	395	12.573937	-16.6984349	63.700002	-50.099999	1.02	100	1	91.000003	0.7	0	0	0	0	0	0	0	0	0	0	0	0.0000	0.0000	0.0000	0.0000;
	395	14	-25.1215487	95.899999	-75.400001	1.02	100	1	137	1.1	0	0	0	0	0	0	0	0	0	0	0	0.0000	0.0000	0.0000	0.0000;
	399	6.286968	5.5691333	51.800001	-40.700001	1.02	100	1	74.000001	0	0	0	0	0	0	0	0	0	0	0	0	0.0000	0.0000	0.0000	0.0000;
	405	25.635204	-4.71585214	18.2	-14.300001	1.02	100	1	25.999999	1	0	0	0	0	0	0	0	5000	15000	0	0	0.0000	0.0000	0.0000	0.0000;
	406	14.789541	-4.47808851	10.5	-8.3	1.02	100	1	15.000001	1	0	0	0	0	0	0	0	5000	15000	0	0	0.0000	0.0000	0.0000	0.0000;
	407	24.649233	-4.69422265	17.5	-13.8	1.02	100	1	25	1	0	0	0	0	0	0	0	5000	15000	0	0	0.0000	0.0000	0.0000	0.0000;
	408	23.663265	-4.44279625	16.8	-13.2	1.02	100	1	23.999999	1	0	0	0	0	0	0	0	5000	15000	0	0	0.0000	0.0000	0.0000	0.0000;
	409	20.705356	-3.16120589	14.7	-11.6	1.02	100	1	20.999999	1	0	0	0	0	0	0	0	5000	15000	0	0	0.0000	0.0000	0.0000	0.0000;
	463	1.28176	-0.130805655	0.9	-0.7	1.02	100	1	1.3	0.2	0	0	0	0	0	0	0	5000	15000	0	0	0.0000	0.0000	0.0000	0.0000;
	463	6.901786	-0.769431103	4.9	-3.9	1.02	100	1	7	1	0	0	0	0	0	0	0	5000	15000	0	0	0.0000	0.0000	0.0000	0.0000;
	463	6.901786	-0.769431103	4.9	-3.9	1.02	100	1	7	1	0	0	0	0	0	0	0	5000	15000	0	0	0.0000	0.0000	0.0000	0.0000;
	463	6.901786	-0.769431103	4.9	-3.9	1.02	100	1	7	1	0	0	0	0	0	0	0	5000	15000	0	0	0.0000	0.0000	0.0000	0.0000;
	463	6.901786	-0.769431103	4.9	-3.9	1.02	100	1	7	1	0	0	0	0	0	0	0	5000	15000	0	0	0.0000	0.0000	0.0000	0.0000;
	463	6.901786	-0.769431103	4.9	-3.9	1.02	100	1	7	1	0	0	0	0	0	0	0	5000	15000	0	0	0.0000	0.0000	0.0000	0.0000;
	469	0	0	10.1	-7.9	1.02	100	0	14.399999	2	0	0	0	0	0	0	0	0	0	0	0	0.0000	0.0000	0.0000	0.0000;
	474	8.873725	1.06124597	6.3	-5	1.02	100	1	9	4	0	0	0	0	0	0	0	5000	15000	0	0	0.0000	0.0000	0.0000	0.0000;
	474	46.340558	5.63993477	32.9	-25.9	1.02	100	1	47	8	0	0	0	0	0	0	0	5000	15000	0	0	0.0000	0.0000	0.0000	0.0000;
	492	0	0	29.499999	-23.199999	1.02	100	0	42.1	2	0	0	0	0	0	0	0	15.6	46.8	0	0	0.0000	0.0000	0.0000	0.0000;
	508	0	0	80.400002	-75.040001	1.02	100	0	107.200003	56	0	0	0	0	0	0	0	300	900	0	0	0.0000	0.0000	0.0000	0.0000;
	508	338.333488	-24.7604809	254.099989	-237.159991	1.02	100	1	338.800001	100.999999	0	0	0	0	0	0	0	300	900	0	0	0.0000	0.0000	0.0000	0.0000;
	526	17.74745	-2.99102582	12.6	-9.9	1.02	100	1	18.000001	1	0	0	0	0	0	0	0	5000	15000	0	0	0.0000	0.0000	0.0000	0.0000;
	535	0	0	29.300001	-23	1.02	100	0	41.9	5	0	0	0	0	0	0	0	200	600	0	0	0.0000	0.0000	0.0000	0.0000;
	535	769.999981	-62.0628492	577.50001	-538.999987	1.02	100	1	769.999981	385.99999	0	0	0	0	0	0	0	900	2700	0	0	0.0000	0.0000	0.0000	0.0000;
	546	0	0	32.600001	-25.600001	1.02	100	0	46.5	5	0	0	0	0	0	0	0	219	657	0	0	0.0000	0.0000	0.0000	0.0000;
	547	0	0	0.1	-0.1	1.02	100	0	0.2	0.1	0	0	0	0	0	0	0	0.5	1.5	0	0	0.0000	0.0000	0.0000	0.0000;
	547	0	0	0.3	-0.2	1.02	100	0	0.4	0.3	0	0	0	0	0	0	0	1	3	0	0	0.0000	0.0000	0.0000	0.0000;
	547	0	0	0.6	-0.4	1.02	100	0	0.8	0.2	0	0	0	0	0	0	0	2	6	0	0	0.0000	0.0000	0.0000	0.0000;
	547	0	0	0.7	-0.6	1.02	100	0	1	0.1	0	0	0	0	0	0	0	2	6	0	0	0.0000	0.0000	0.0000	0.0000;
	547	0	0	0.7	-0.6	1.02	100	0	1	0.3	0	0	0	0	0	0	0	2	6	0	0	0.0000	0.0000	0.0000	0.0000;
	547	0	0	0.7	-0.6	1.02	100	0	1	0.2	0	0	0	0	0	0	0	2	6	0	0	0.0000	0.0000	0.0000	0.0000;
	547	0	0	1.1	-0.8	1.02	100	0	1.5	0.1	0	0	0	0	0	0	0	3	9	0	0	0.0000	0.0000	0.0000	0.0000;
	547	0	0	1.1	-0.8	1.02	100	0	1.5	0.1	0	0	0	0	0	0	0	3	9	0	0	0.0000	0.0000	0.0000	0.0000;
	547	0	0	1.1	-0.8	1.02	100	0	1.5	0.3	0	0	0	0	0	0	0	3	9	0	0	0.0000	0.0000	0.0000	0.0000;
	547	0	0	1.4	-1.1	1.02	100	0	2	0.3	0	0	0	0	0	0	0	4	12	0	0	0.0000	0.0000	0.0000	0.0000;
	547	0	0	1.4	-1.1	1.02	100	0	2	0.3	0	0	0	0	0	0	0	4	12	0	0	0.0000	0.0000	0.0000	0.0000;
	547	0	0	1.8	-1.4	1.02	100	0	2.5	0.3	0	0	0	0	0	0	0	5	15	0	0	0.0000	0.0000	0.0000	0.0000;
	552	0	0	11.2	-8.8	1.01	100	0	16	10.6	0	0	0	0	0	0	0	83	249	0	0	0.0000	0.0000	0.0000	0.0000;
	552	0	0	37.099999	-29.2	1.01	100	0	52.999997	37	0	0	0	0	0	0	0	233.5	700.5	0	0	0.0000	0.0000	0.0000	0.0000;
	552	0	0	37.099999	-29.2	1.01	100	0	52.999997	37	0	0	0	0	0	0	0	235.5	706.5	0	0	0.0000	0.0000	0.0000	0.0000;
	552	0	0	131.599998	-103.400004	1.01	100	0	188	15.000001	0	0	0	0	0	0	0	75.68	227.04	0	0	0.0000	0.0000	0.0000	0.0000;
	552	0	0	131.599998	-103.400004	1.01	100	0	188	15.000001	0	0	0	0	0	0	0	77.88	233.64	0	0	0.0000	0.0000	0.0000	0.0000;
	554	0	0	261.675	-244.230008	1.01	100	0	348.899984	229.999995	0	0	0	0	0	0	0	600	1800	0	0	0.0000	0.0000	0.0000	0.0000;
	556	528.000021	172.123496	396.000004	-369.60001	1.02	100	1	528.000021	202.999997	0	0	0	0	0	0	0	900	2700	0	0	0.0000	0.0000	0.0000	0.0000;
	557	0	0	29.300001	-23	1.02	100	0	41.9	18.6	0	0	0	0	0	0	0	227.5	682.5	0	0	0.0000	0.0000	0.0000	0.0000;
	557	0	0	29.300001	-23	1.02	100	0	41.9	18.6	0	0	0	0	0	0	0	224	672	0	0	0.0000	0.0000	0.0000	0.0000;
	557	0	0	29.300001	-23	1.02	100	0	41.9	18.6	0	0	0	0	0	0	0	233	699	0	0	0.0000	0.0000	0.0000	0.0000;
	557	0	0	29.300001	-23	1.02	100	0	41.9	18.6	0	0	0	0	0	0	0	226	678	0	0	0.0000	0.0000	0.0000	0.0000;
	557	0	0	29.300001	-23	1.02	100	0	41.9	18.6	0	0	0	0	0	0	0	229	687	0	0	0.0000	0.0000	0.0000	0.0000;
	557	0	0	29.300001	-23	1.02	100	0	41.9	18.6	0	0	0	0	0	0	0	235	705	0	0	0.0000	0.0000	0.0000	0.0000;
...
];

%% branch data
%	fbus	tbus	r	x	b	rateA	rateB	rateC	ratio	angle	status	angmin	angmax	Pf	Qf	Pt	Qt	mu_Sf	mu_St	mu_angmin	mu_angmax
mpc.branch = [
	142	1	0.03889	0.16081	0.02663	167	556	210	0	0	1	0	0	-36.4007	9.9977	36.9468	-10.4913	0.0000	0.0000	0.0000	0.0000;
	1	199	0.00254	0.01051	0.00174	167	556	210	0	0	1	0	0	11.2042	-0.1692	-11.2011	0.0026	0.0000	0.0000	0.0000	0.0000;
	1	228	0.01207	0.04989	0.00826	167	556	210	0	0	1	0	0	37.9779	-7.9123	-37.8025	7.7860	0.0000	0.0000	0.0000	0.0000;
	1	228	0.01336	0.05524	0.00915	167	556	210	0	0	1	0	0	34.3009	-7.2307	-34.1425	6.9425	0.0000	0.0000	0.0000	0.0000;
	1	242	0.00663	0.02741	0.00454	167	556	210	0	0	1	0	0	25.4680	-8.8064	-25.4215	8.5299	0.0000	0.0000	0.0000	0.0000;
	881	1	0.00926	0.0383	0.00634	167	556	210	0	0	1	0	0	21.3300	-14.0576	-21.2718	13.6465	0.0000	0.0000	0.0000	0.0000;
	882	1	0.00917	0.03791	0.00628	167	556	210	0	0	1	0	0	21.5367	-14.1928	-21.4780	13.7901	0.0000	0.0000	0.0000	0.0000;
	883	1	0.00543	0.02247	0.00372	167	556	210	0	0	1	0	0	26.6471	-11.4651	-26.6029	11.2647	0.0000	0.0000	0.0000	0.0000;
	1	1402	0.0028	0.01156	0.00192	116	556	145	0	0	1	0	0	41.8970	-14.0639	-41.8441	14.0844	0.0000	0.0000	0.0000	0.0000;
	1	1402	0.0028	0.01156	0.00192	116	556	145	0	0	1	0	0	41.8970	-14.0639	-41.8441	14.0844	0.0000	0.0000	0.0000	0.0000;
	1	1403	0.00276	0.01141	0.00189	167	556	210	0	0	1	0	0	48.9009	-2.1418	-48.8368	2.2122	0.0000	0.0000	0.0000	0.0000;
	1	1404	0.00277	0.01146	0.0019	167	556	210	0	0	1	0	0	48.8501	-2.1391	-48.7859	2.2090	0.0000	0.0000	0.0000	0.0000;
	1	1405	0.00278	0.01149	0.0019	167	556	210	0	0	1	0	0	14.0699	-0.0932	-14.0645	-0.0806	0.0000	0.0000	0.0000	0.0000;
	1	1422	0.0019	0.00785	0.0013	167	556	210	0	0	1	0	0	15.8636	-0.1687	-15.8590	0.0539	0.0000	0.0000	0.0000	0.0000;
	1	1550	0.02427	0.10034	0.01662	116	556	145	0	0	1	0	0	-55.7508	11.6150	56.5189	-10.1576	0.0000	0.0000	0.0000	0.0000;
	1	1550	0.02427	0.10034	0.01662	116	556	145	0	0	1	0	0	-55.7508	11.6150	56.5189	-10.1576	0.0000	0.0000	0.0000	0.0000;
	1	1551	0.00477	0.01973	0.00327	556	556	556	0	0	1	0	0	-118.8076	2.5214	119.4608	-0.1583	0.0000	0.0000	0.0000	0.0000;
	1	1551	0.00437	0.01805	0.00299	556	556	556	0	0	1	0	0	-129.8545	2.8278	130.5694	-0.1847	0.0000	0.0000	0.0000	0.0000;
	777	2	0.04083	0.09281	0.00181	96	250	123	0	0	1	0	0	1.0004	-0.1845	-1.0000	0.0000	0.0000	0.0000	0.0000	0.0000;
	794	3	0.00164	0.00676	0.00112	167	556	210	0	0	1	0	0	2.2201	-0.1138	-2.2200	-0.0000	0.0000	0.0000	0.0000	0.0000;
	4	193	0.00102	0.00421	0.0007	167	556	210	0	0	1	0	0	25.5089	-0.0537	-25.5022	0.0122	0.0000	0.0000	0.0000	0.0000;
	4	193	0.00105	0.00435	0.00072	167	556	210	0	0	1	0	0	24.6930	-0.0330	-24.6866	-0.0113	0.0000	0.0000	0.0000	0.0000;
	4	193	0.00103	0.00425	0.0007	167	556	210	0	0	1	0	0	25.2684	-0.0552	-25.2618	0.0135	0.0000	0.0000	0.0000	0.0000;
	4	449	0.00637	0.02634	0.00436	167	556	210	0	0	1	0	0	10.5149	-1.3671	-10.5077	0.9660	0.0000	0.0000	0.0000	0.0000;
	4	1527	0.00495	0.0211	0.0027	167	556	210	0	0	1	0	0	-80.7176	0.7545	81.0439	0.3682	0.0000	0.0000	0.0000	0.0000;
	4	1527	0.00495	0.0211	0.0027	167	556	210	0	0	1	0	0	-80.7176	0.7545	81.0439	0.3682	0.0000	0.0000	0.0000	0.0000;
	990	5	5e-05	0.00019	3e-05	167	556	210	0	0	1	0	0	2.2200	-0.0030	-2.2200	-0.0000	0.0000	0.0000	0.0000	0.0000;
	635	6	0.00361	0.01494	0.00247	167	556	210	0	0	1	0	0	-9.2142	1.4094	9.2172	-1.6538	0.0000	0.0000	0.0000	0.0000;
	698	7	0.00203	0.00841	0.00139	167	556	210	0	0	1	0	0	0.7361	-0.1120	-0.7361	-0.0318	0.0000	0.0000	0.0000	0.0000;
	699	7	0.00203	0.00839	0.00139	167	556	210	0	0	1	0	0	3.6942	-0.1746	-3.6939	0.0318	0.0000	0.0000	0.0000	0.0000;
	676	8	0.00211	0.00871	0.00144	167	556	210	0	0	1	0	0	-6.0921	1.2718	6.0929	-1.4182	0.0000	0.0000	0.0000	0.0000;
	677	8	0.00211	0.00873	0.00145	167	556	210	0	0	1	0	0	10.5252	-1.5595	-10.5229	1.4182	0.0000	0.0000	0.0000	0.0000;
	9	524	0.01092	0.04516	0.00748	556	556	556	0	0	1	0	0	-2.7429	7.9641	2.7511	-8.7010	0.0000	0.0000	0.0000	0.0000;
	649	9	0.01472	0.06087	0.01008	556	556	556	0	0	1	0	0	-7.0637	-10.2980	7.0847	9.3500	0.0000	0.0000	0.0000	0.0000;
	649	9	0.01472	0.06087	0.01008	556	556	556	0	0	1	0	0	-7.0637	-10.2980	7.0847	9.3500	0.0000	0.0000	0.0000	0.0000;
	848	9	0.001	0.07	0	750	750	750	0.975	0	1	0	0	138.5189	47.9533	-138.3225	-34.2055	0.0000	0.0000	0.0000	0.0000;
	9	851	0.00323	0.01336	0.00221	240	556	265	0	0	1	0	0	107.3360	7.5415	-106.9742	-6.2725	0.0000	0.0000	0.0000	0.0000;
	10	450	0.00418	0.01729	0.00286	167	556	210	0	0	1	0	0	-15.0900	-0.0000	15.0998	-0.2376	0.0000	0.0000	0.0000	0.0000;
	11	489	0.00196	0.00812	0.00134	167	556	210	0	0	1	0	0	-6.4792	-1.8227	6.4800	1.6896	0.0000	0.0000	0.0000	0.0000;
	795	11	0.0004	0.00165	0.00027	167	556	210	0	0	1	0	0	-2.0491	-1.8501	2.0492	1.8227	0.0000	0.0000	0.0000	0.0000;
	872	12	5e-05	0.00019	3e-05	167	556	210	0	0	1	0	0	2.2200	-0.0031	-2.2200	0.0000	0.0000	0.0000	0.0000	0.0000;
	13	196	0.00156	0.00645	0.00107	167	556	210	0	0	1	0	0	-3.9905	-2.1187	3.9908	2.0093	0.0000	0.0000	0.0000	0.0000;
	864	13	0.00811	0.03354	0.00555	167	556	210	0	0	1	0	0	0.0777	-2.6176	-0.0773	2.0459	0.0000	0.0000	0.0000	0.0000;
	865	13	0.00813	0.03361	0.00557	167	556	210	0	0	1	0	0	0.8054	-2.7641	-0.8049	2.1908	0.0000	0.0000	0.0000	0.0000;
	13	1442	0.00156	0.00646	0.00107	167	556	210	0	0	1	0	0	-3.9973	-2.1180	3.9976	2.0086	0.0000	0.0000	0.0000	0.0000;
	14	460	0.00143	0.0059	0.00098	167	556	210	0	0	1	0	0	1.3700	-0.1007	-1.3700	-0.0000	0.0000	0.0000	0.0000	0.0000;
	1017	14	0.00284	0.01174	0.00194	167	556	210	0	0	1	0	0	4.1005	-0.2984	-4.1000	0.1007	0.0000	0.0000	0.0000	0.0000;
	59	15	0.03648	0.15084	0.02498	167	556	210	0	0	1	0	0	-25.7337	6.6106	25.9870	-8.1663	0.0000	0.0000	0.0000	0.0000;
	15	402	0.0021	0.0087	0.00144	167	556	210	0	0	1	0	0	-12.9415	2.6493	12.9450	-2.7845	0.0000	0.0000	0.0000	0.0000;
	16	391	0.02118	0.08756	0.0145	167	556	210	0	0	1	0	0	29.3140	-5.4407	-29.1338	4.6871	0.0000	0.0000	0.0000	0.0000;
	1030	16	0.00835	0.03453	0.00572	167	556	210	0	0	1	0	0	53.2890	-8.5985	-53.0551	8.9727	0.0000	0.0000	0.0000	0.0000;
	1050	16	0.02493	0.1031	0.01707	167	556	210	0	0	1	0	0	60.1733	-12.4932	-59.2709	14.4562	0.0000	0.0000	0.0000	0.0000;
	1051	16	0.00207	0.00857	0.00142	167	556	210	0	0	1	0	0	-50.3301	12.9987	50.3841	-12.9220	0.0000	0.0000	0.0000	0.0000;
	16	1394	0.02598	0.10743	0.01779	167	556	210	0	0	1	0	0	25.7978	-5.0662	-25.6265	3.9357	0.0000	0.0000	0.0000	0.0000;
	17	628	0.0017	0.0085	0.064	300	300	330	0	0	1	0	0	-69.2745	-7.0793	69.3540	0.8785	0.0000	0.0000	0.0000	0.0000;
	17	628	0.0017	0.0085	0.064	300	300	330	0	0	1	0	0	-69.2745	-7.0793	69.3540	0.8785	0.0000	0.0000	0.0000	0.0000;
	17	1467	0.00302	0.10864	0	500	500	500	1	0	1	0	0	59.8045	7.0793	-59.6981	-3.2520	0.0000	0.0000	0.0000	0.0000;
	17	1467	0.00302	0.10864	0	500	500	500	1	0	1	0	0	59.8045	7.0793	-59.6981	-3.2520	0.0000	0.0000	0.0000	0.0000;
	18	561	0.04007	0.09109	0.00178	250	250	250	0	0	1	0	0	71.2362	-19.7017	-69.1449	24.2712	0.0000	0.0000	0.0000	0.0000;
	18	583	0.01009	0.02294	0.00045	200	250	200	0	0	1	0	0	39.0472	-8.2763	-38.8936	8.5786	0.0000	0.0000	0.0000	0.0000;
	18	585	0.00802	0.01823	0.00036	250	250	250	0	0	1	0	0	55.0094	-9.5244	-54.7704	10.0300	0.0000	0.0000	0.0000	0.0000;
	18	1494	0.00357	0.00812	0.00016	250	250	250	0	0	1	0	0	-56.6131	11.5804	56.7271	-11.3379	0.0000	0.0000	0.0000	0.0000;
	18	1494	0.0032	0.00727	0.00014	250	250	250	0	0	1	0	0	-63.2149	12.9610	63.3423	-12.6862	0.0000	0.0000	0.0000	0.0000;
	18	1494	0.0032	0.00727	0.00014	250	250	250	0	0	1	0	0	-63.2149	12.9610	63.3423	-12.6862	0.0000	0.0000	0.0000	0.0000;
	19	1538	0.0038	0.01572	0.0026	556	556	556	0	0	1	0	0	225.1295	-11.3200	-223.2738	18.7280	0.0000	0.0000	0.0000	0.0000;
	19	1538	0.0038	0.01572	0.0026	556	556	556	0	0	1	0	0	225.1295	-11.3200	-223.2738	18.7280	0.0000	0.0000	0.0000	0.0000;
	19	1538	0.0038	0.01572	0.0026	556	556	556	0	0	1	0	0	225.1295	-11.3200	-223.2738	18.7280	0.0000	0.0000	0.0000	0.0000;
	19	1538	0.0038	0.01572	0.0026	556	556	556	0	0	1	0	0	225.1295	-11.3200	-223.2738	18.7280	0.0000	0.0000	0.0000	0.0000;
	19	1538	0.0038	0.01572	0.0026	556	556	556	0	0	1	0	0	225.1295	-11.3200	-223.2738	18.7280	0.0000	0.0000	0.0000	0.0000;
	1004	20	0.00062	0.00256	0.00042	167	556	210	0	0	1	0	0	61.7359	-5.5213	-61.7130	5.5722	0.0000	0.0000	0.0000	0.0000;
	1008	20	0.01418	0.05866	0.00971	167	556	210	0	0	1	0	0	-38.2387	4.4741	38.4426	-4.6374	0.0000	0.0000	0.0000	0.0000;
	1020	20	0.00918	0.03796	0.00629	167	556	210	0	0	1	0	0	22.6560	-7.9304	-22.6055	7.4859	0.0000	0.0000	0.0000	0.0000;
	1195	20	0.00943	0.03899	0.00646	167	556	210	0	0	1	0	0	-40.2519	8.3863	40.4059	-8.4207	0.0000	0.0000	0.0000	0.0000;
	21	403	0.005	0.02069	0.00343	167	556	210	0	0	1	0	0	18.5033	-5.0253	-18.4857	4.7411	0.0000	0.0000	0.0000	0.0000;
	21	406	0.02031	0.06988	0.00859	116	556	145	0	0	1	0	0	-30.3903	8.7530	30.5871	-8.9695	0.0000	0.0000	0.0000	0.0000;
	1004	21	0.0004	0.00163	0.00027	167	556	210	0	0	1	0	0	-15.9919	-6.2791	15.9931	6.2556	0.0000	0.0000	0.0000	0.0000;
	1005	21	0.00536	0.02218	0.00367	167	556	210	0	0	1	0	0	15.2305	-7.5810	-15.2157	7.2607	0.0000	0.0000	0.0000	0.0000;
	1009	21	0.01417	0.05861	0.00971	167	556	210	0	0	1	0	0	-40.9017	4.6405	41.1345	-4.6847	0.0000	0.0000	0.0000	0.0000;
	1204	22	0.02827	0.06426	0.00126	96	250	123	0	0	1	0	0	1.0003	-0.1283	-1.0000	0.0000	0.0000	0.0000	0.0000	0.0000;
	751	23	0.03122	0.1291	0.02138	167	556	210	0	0	1	0	0	-24.8656	-0.8382	25.0544	-0.5844	0.0000	0.0000	0.0000	0.0000;
	1193	23	0.00673	0.02783	0.00461	167	556	210	0	0	1	0	0	42.6481	-6.9870	-42.5275	7.0066	0.0000	0.0000	0.0000	0.0000;
	1194	23	0.00672	0.0278	0.0046	167	556	210	0	0	1	0	0	42.8423	-6.9304	-42.7208	6.9547	0.0000	0.0000	0.0000	0.0000;
	1208	23	0.01755	0.07259	0.01202	167	556	210	0	0	1	0	0	-25.8193	0.7776	25.9331	-1.5508	0.0000	0.0000	0.0000	0.0000;
	1214	23	0.00381	0.01575	0.00261	167	556	210	0	0	1	0	0	-27.3982	11.6897	27.4308	-11.8261	0.0000	0.0000	0.0000	0.0000;
	908	24	0.00179	0.00742	0.00123	167	556	210	0	0	1	0	0	11.8047	-16.8538	-11.7974	16.7560	0.0000	0.0000	0.0000	0.0000;
	913	24	0.02737	0.11317	0.01874	167	556	210	0	0	1	0	0	-36.5550	8.3331	36.9296	-8.7331	0.0000	0.0000	0.0000	0.0000;
	914	24	0.03784	0.15647	0.02591	167	556	210	0	0	1	0	0	-35.4953	8.2516	35.9871	-8.9132	0.0000	0.0000	0.0000	0.0000;
	1100	24	0.02855	0.11804	0.01955	167	556	210	0	0	1	0	0	71.9032	-16.1660	-70.4181	20.2747	0.0000	0.0000	0.0000	0.0000;
	1102	24	0.02496	0.10319	0.01709	167	556	210	0	0	1	0	0	-29.7582	-0.4237	29.9737	-0.4503	0.0000	0.0000	0.0000	0.0000;
	25	83	0.0105	0.04341	0.00719	167	556	210	0	0	1	0	0	-1.3700	-0.0000	1.3702	-0.7487	0.0000	0.0000	0.0000	0.0000;
	26	557	1e-05	0.00019	0.00501	1216	2454	1804	0	0	1	0	0	442.2730	12.8417	-442.2542	-13.0054	0.0000	0.0000	0.0000	0.0000;
	26	557	1e-05	0.00018	0.00468	1216	2454	1804	0	0	1	0	0	466.8084	12.2237	-466.7875	-12.3333	0.0000	0.0000	0.0000	0.0000;
	26	1468	0.00124	0.0559	0	1347	1347	1347	1	0	1	0	0	335.9186	27.4193	-334.5647	33.6135	0.0000	0.0000	0.0000	0.0000;
	1068	27	7e-05	0.0003	5e-05	167	556	210	0	0	1	0	0	23.0873	-1.0016	-23.0870	0.9981	0.0000	0.0000	0.0000	0.0000;
	1070	27	0.00033	0.00136	0.00022	167	556	210	0	0	1	0	0	-17.1560	0.9799	17.1570	-0.9981	0.0000	0.0000	0.0000	0.0000;
	1286	28	0.0005	0.00207	0.00035	116	556	145	0	0	1	0	0	-11.8164	3.2741	11.8172	-3.3076	0.0000	0.0000	0.0000	0.0000;
	1287	28	0.0005	0.00205	0.00034	116	556	145	0	0	1	0	0	13.1880	-3.3393	-13.1872	3.3076	0.0000	0.0000	0.0000	0.0000;
	124	29	0.03314	0.13704	0.02269	167	556	210	0	0	1	0	0	-24.4094	8.5576	24.6298	-9.9919	0.0000	0.0000	0.0000	0.0000;
	29	152	0.00852	0.03523	0.00583	167	556	210	0	0	1	0	0	-11.5183	-0.4545	11.5292	-0.1007	0.0000	0.0000	0.0000	0.0000;
	212	29	0.01428	0.05907	0.00978	167	556	210	0	0	1	0	0	52.0297	-19.6029	-51.5998	20.3790	0.0000	0.0000	0.0000	0.0000;
	896	29	0.02749	0.11366	0.01882	167	556	210	0	0	1	0	0	-26.4273	8.8615	26.6383	-9.9326	0.0000	0.0000	0.0000	0.0000;
	30	55	0.02366	0.09785	0.0162	167	556	210	0	0	1	0	0	29.6276	-6.7289	-29.4201	5.9029	0.0000	0.0000	0.0000	0.0000;
	30	131	0.00843	0.03485	0.00577	167	556	210	0	0	1	0	0	-26.2706	7.7712	26.3318	-8.1182	0.0000	0.0000	0.0000	0.0000;
	32	31	0.0006	0.0027	0.00044	135	556	175	0	0	1	0	0	-36.8760	8.3809	36.8843	-8.3896	0.0000	0.0000	0.0000	0.0000;
	680	31	0.00125	0.00518	0.00086	167	556	210	0	0	1	0	0	-19.0634	3.6967	19.0679	-3.7674	0.0000	0.0000	0.0000	0.0000;
	32	84	0.0108	0.0428	0.0055	120	556	120	0	0	1	0	0	-7.0723	1.5221	7.0778	-2.0724	0.0000	0.0000	0.0000	0.0000;
	32	474	0.00565	0.02337	0.00387	167	556	210	0	0	1	0	0	26.0181	-6.3846	-25.9793	6.1426	0.0000	0.0000	0.0000	0.0000;
	32	678	0.006	0.027	0.0044	167	556	210	0	0	1	0	0	15.7102	-3.5184	-15.6953	3.1275	0.0000	0.0000	0.0000	0.0000;
	33	140	0.00862	0.03565	0.0059	167	556	210	0	0	1	0	0	26.1950	-3.4948	-26.1373	3.1199	0.0000	0.0000	0.0000	0.0000;
	33	1469	0.01066	0.04408	0.0073	167	556	210	0	0	1	0	0	-29.6750	3.4948	29.7667	-3.8764	0.0000	0.0000	0.0000	0.0000;
	1178	34	0.00098	0.00404	0.00067	167	556	210	0	0	1	0	0	-5.8812	0.9679	5.8815	-1.0360	0.0000	0.0000	0.0000	0.0000;
	1179	34	0.00097	0.004	0.00066	167	556	210	0	0	1	0	0	11.8128	-1.0989	-11.8115	1.0360	0.0000	0.0000	0.0000	0.0000;
	35	36	0.00018	0.00076	0.00013	175	563	175	0	0	1	0	0	-51.5752	25.0195	51.5811	-25.0077	0.0000	0.0000	0.0000	0.0000;
	35	36	0.00018	0.00076	0.00013	175	563	175	0	0	1	0	0	-51.5752	25.0195	51.5811	-25.0077	0.0000	0.0000	0.0000	0.0000;
	35	191	0.01727	0.07139	0.01182	167	556	210	0	0	1	0	0	42.7618	2.9925	-42.4447	-2.8563	0.0000	0.0000	0.0000	0.0000;
	35	485	0.01865	0.07712	0.01277	116	556	145	0	0	1	0	0	25.7470	-17.5658	-25.5705	17.0040	0.0000	0.0000	0.0000	0.0000;
	35	485	0.01865	0.07712	0.01277	116	556	145	0	0	1	0	0	25.7470	-17.5658	-25.5705	17.0040	0.0000	0.0000	0.0000	0.0000;
	36	190	0.02914	0.1205	0.01995	167	556	210	0	0	1	0	0	-67.8052	18.9420	69.2567	-14.9394	0.0000	0.0000	0.0000	0.0000;
	36	192	0.00793	0.03281	0.00543	175	556	175	0	0	1	0	0	-43.8432	19.0811	44.0248	-18.8727	0.0000	0.0000	0.0000	0.0000;
	36	192	0.00793	0.03281	0.00543	175	556	175	0	0	1	0	0	-43.8432	19.0811	44.0248	-18.8727	0.0000	0.0000	0.0000	0.0000;
	490	36	0.0375	0.24	0.033	116	563	145	0	0	1	0	0	-16.3075	4.4698	16.4194	-7.0889	0.0000	0.0000	0.0000	0.0000;
	37	270	0.00261	0.01077	0.00178	167	556	210	0	0	1	0	0	106.3824	-1.4418	-106.0984	2.4288	0.0000	0.0000	0.0000	0.0000;
	37	270	0.00334	0.01382	0.00229	167	556	210	0	0	1	0	0	82.9175	-1.1189	-82.6968	1.7947	0.0000	0.0000	0.0000	0.0000;
	37	273	0.00153	0.00631	0.00104	167	556	210	0	0	1	0	0	1.7400	-0.1080	-1.7400	-0.0000	0.0000	0.0000	0.0000	0.0000;
	38	91	0.00853	0.03527	0.00584	167	556	210	0	0	1	0	0	-13.2769	3.9973	13.2929	-4.5387	0.0000	0.0000	0.0000	0.0000;
	38	97	0.01486	0.06145	0.01018	167	556	210	0	0	1	0	0	21.7969	1.2252	-21.7286	-1.9976	0.0000	0.0000	0.0000	0.0000;
	39	1307	0.00092	0.0074	0.02824	453	936	579	0	0	1	0	0	-24.6722	0.3511	24.6776	-3.2459	0.0000	0.0000	0.0000	0.0000;
	39	1469	0.00149	0.0623	0	326	369	423	1	0	1	0	0	32.6722	-3.2309	-32.6567	3.8764	0.0000	0.0000	0.0000	0.0000;
	779	40	0.00339	0.01403	0.00232	167	556	210	0	0	1	0	0	1.3701	-0.2404	-1.3700	-0.0000	0.0000	0.0000	0.0000	0.0000;
	932	41	0.00025	0.00105	0.00017	167	556	210	0	0	1	0	0	-12.7359	4.0167	12.7364	-4.0323	0.0000	0.0000	0.0000	0.0000;
	933	41	0.0003	0.00123	0.0002	167	556	210	0	0	1	0	0	16.2172	-4.0496	-16.2164	4.0323	0.0000	0.0000	0.0000	0.0000;
	42	46	0.00072	0.00296	0.00049	167	556	210	0	0	1	0	0	5.2202	-0.1386	-5.2200	0.0880	0.0000	0.0000	0.0000	0.0000;
	1116	42	0.00378	0.01565	0.00259	167	556	210	0	0	1	0	0	-34.5917	3.5532	34.6353	-3.6439	0.0000	0.0000	0.0000	0.0000;
	1328	42	0.02099	0.08681	0.01438	167	556	210	0	0	1	0	0	-15.5629	0.1542	15.6118	-1.4569	0.0000	0.0000	0.0000	0.0000;
	1329	42	0.021	0.08682	0.01438	167	556	210	0	0	1	0	0	-15.5637	0.1554	15.6126	-1.4582	0.0000	0.0000	0.0000	0.0000;
	42	1330	0.00036	0.00149	0.00025	167	556	210	0	0	1	0	0	19.3638	-1.4904	-19.3625	1.4696	0.0000	0.0000	0.0000	0.0000;
	42	1576	0.00889	0.03675	0.00609	167	556	210	0	0	1	0	0	-51.2422	4.0934	51.4663	-3.8075	0.0000	0.0000	0.0000	0.0000;
	42	1576	0.00886	0.03666	0.00607	167	556	210	0	0	1	0	0	-51.3716	4.0946	51.5961	-3.8043	0.0000	0.0000	0.0000	0.0000;
	45	43	0.00052	0.00217	0.00036	167	556	210	0	0	1	0	0	5.4494	-0.7740	-5.4493	0.7370	0.0000	0.0000	0.0000	0.0000;
	1116	43	0.00609	0.02519	0.00417	167	556	210	0	0	1	0	0	-1.9691	0.3011	1.9693	-0.7370	0.0000	0.0000	0.0000	0.0000;
	45	44	0.00034	0.00142	0.00023	167	556	210	0	0	1	0	0	1.7400	-0.0241	-1.7400	0.0000	0.0000	0.0000	0.0000	0.0000;
	45	1330	0.0088	0.03638	0.00602	167	556	210	0	0	1	0	0	-12.3995	0.7981	12.4125	-1.3753	0.0000	0.0000	0.0000	0.0000;
	46	1438	0.00123	0.00508	0.00084	167	556	210	0	0	1	0	0	1.7400	-0.0880	-1.7400	0.0000	0.0000	0.0000	0.0000	0.0000;
	1106	47	0.01392	0.05755	0.00953	167	556	210	0	0	1	0	0	1.7404	-1.0005	-1.7400	0.0000	0.0000	0.0000	0.0000	0.0000;
	48	86	0.01054	0.04358	0.00722	167	556	210	0	0	1	0	0	0.2166	5.5907	-0.2130	-6.3298	0.0000	0.0000	0.0000	0.0000;
	1107	48	0.01145	0.04733	0.00784	167	556	210	0	0	1	0	0	-7.6962	6.7037	7.7081	-7.4769	0.0000	0.0000	0.0000	0.0000;
	48	1108	0.01146	0.0474	0.00785	167	556	210	0	0	1	0	0	7.7054	-7.4668	-7.6935	6.6926	0.0000	0.0000	0.0000	0.0000;
	48	1369	0.02381	0.09844	0.0163	167	556	210	0	0	1	0	0	-22.5801	9.3530	22.7198	-10.4747	0.0000	0.0000	0.0000	0.0000;
	1015	49	0.00233	0.00963	0.00159	167	556	210	0	0	1	0	0	1.9218	-0.9508	-1.9217	0.7862	0.0000	0.0000	0.0000	0.0000;
	1016	49	0.00231	0.00953	0.00158	167	556	210	0	0	1	0	0	0.8084	0.6222	-0.8083	-0.7862	0.0000	0.0000	0.0000	0.0000;
	50	412	0.00331	0.01367	0.00226	167	556	210	0	0	1	0	0	-1.4580	0.0192	1.4580	-0.2518	0.0000	0.0000	0.0000	0.0000;
	1031	50	0.00324	0.01342	0.00222	167	556	210	0	0	1	0	0	1.2721	-0.2094	-1.2720	-0.0192	0.0000	0.0000	0.0000	0.0000;
	51	131	0.00276	0.01143	0.00189	167	556	210	0	0	1	0	0	-2.9600	-0.0000	2.9602	-0.1954	0.0000	0.0000	0.0000	0.0000;
	52	131	0.01481	0.06124	0.01014	167	556	210	0	0	1	0	0	3.3270	-0.4279	-3.3254	-0.6200	0.0000	0.0000	0.0000	0.0000;
	53	152	0.03542	0.14646	0.02425	167	556	210	0	0	1	0	0	17.5646	-2.1772	-17.4592	0.1007	0.0000	0.0000	0.0000	0.0000;
	1565	53	0.0223	0.09221	0.01527	167	556	210	0	0	1	0	0	17.2733	-3.7617	-17.2076	2.4432	0.0000	0.0000	0.0000	0.0000;
	54	132	0.00359	0.02888	0.11019	453	936	579	0	0	1	0	0	-64.4319	22.3268	64.6002	-32.5298	0.0000	0.0000	0.0000	0.0000;
	1303	54	0.00498	0.04	0.15261	453	936	579	0	0	1	0	0	-64.2262	7.8441	64.4319	-22.3268	0.0000	0.0000	0.0000	0.0000;
	55	56	0.00881	0.03642	0.00603	167	556	210	0	0	1	0	0	18.9813	-4.4138	-18.9493	3.9198	0.0000	0.0000	0.0000	0.0000;
	124	55	0.03506	0.14498	0.02401	167	556	210	0	0	1	0	0	-1.5480	-1.0012	1.5488	-1.4891	0.0000	0.0000	0.0000	0.0000;
	56	57	0.01171	0.04844	0.00802	167	556	210	0	0	1	0	0	13.0193	-3.9198	-12.9988	3.1715	0.0000	0.0000	0.0000	0.0000;
	57	133	0.01248	0.05159	0.00854	167	556	210	0	0	1	0	0	7.0688	-3.1715	-7.0619	2.3124	0.0000	0.0000	0.0000	0.0000;
	58	353	0.00193	0.00799	0.00132	417	417	417	0	0	1	0	0	98.0186	-4.8275	-97.8396	5.4320	0.0000	0.0000	0.0000	0.0000;
	58	1552	0.00016	0.00068	0.00011	417	417	417	0	0	1	0	0	-102.4586	4.8275	102.4748	-4.7700	0.0000	0.0000	0.0000	0.0000;
	59	83	0.00638	0.02637	0.00437	167	556	210	0	0	1	0	0	-5.1455	3.5766	5.1480	-4.0221	0.0000	0.0000	0.0000	0.0000;
	59	83	0.00637	0.02632	0.00436	167	556	210	0	0	1	0	0	-5.1548	3.5847	5.1574	-4.0291	0.0000	0.0000	0.0000	0.0000;
	1027	59	0.00722	0.02987	0.00495	167	556	210	0	0	1	0	0	-73.1779	12.4942	73.5608	-11.4259	0.0000	0.0000	0.0000	0.0000;
	1028	59	0.00721	0.02982	0.00494	167	556	210	0	0	1	0	0	-73.2868	12.5166	73.6703	-11.4452	0.0000	0.0000	0.0000	0.0000;
	1040	59	0.0223	0.09222	0.01527	167	556	210	0	0	1	0	0	9.9150	-5.1825	-9.8898	3.6957	0.0000	0.0000	0.0000	0.0000;
	1041	59	0.0223	0.09221	0.01527	167	556	210	0	0	1	0	0	9.8993	-5.1797	-9.8742	3.6926	0.0000	0.0000	0.0000	0.0000;
	59	1220	0.00149	0.0623	0	325	325	325	0	0	1	0	0	-101.0033	1.7109	101.1489	4.3796	0.0000	0.0000	0.0000	0.0000;
	60	500	0.03202	0.0728	0.00142	96	250	123	0	0	1	0	0	-1.2395	-0.0852	1.2399	-0.0615	0.0000	0.0000	0.0000	0.0000;
	533	60	0.04755	0.10809	0.00211	96	250	123	0	0	1	0	0	-10.6060	0.0907	10.6579	-0.1912	0.0000	0.0000	0.0000	0.0000;
	1271	61	0.03583	0.14818	0.02454	167	556	210	0	0	1	0	0	51.2781	-15.2066	-50.2876	16.7829	0.0000	0.0000	0.0000	0.0000;
	61	1289	0.02422	0.10014	0.01658	167	556	210	0	0	1	0	0	20.3571	-8.2812	-20.2470	7.0201	0.0000	0.0000	0.0000	0.0000;
	61	1289	0.02343	0.09689	0.01604	167	556	210	0	0	1	0	0	21.0404	-8.5017	-20.9266	7.3117	0.0000	0.0000	0.0000	0.0000;
	63	62	0	5e-05	0.00123	1216	1216	1804	0	0	1	0	0	271.5780	-20.5516	-271.5780	20.4593	0.0000	0.0000	0.0000	0.0000;
	62	722	0.00025	0.00383	0.09893	1216	2454	1804	0	0	1	0	0	271.5780	-20.4593	-271.4002	12.8905	0.0000	0.0000	0.0000	0.0000;
...